@<TRIPOS>MOLECULE
EPR
48 50 1 0 0
POLYMER
CHARGES


@<TRIPOS>ATOM
      1 C14       126.3360   72.3480   -1.3600 C.3       1 UNK    0.0000
      2 N3        126.4300   72.6230    0.1010 N.am      1 UNK    0.0000
      3 C15       125.0770   72.8430    0.7080 C.3       1 UNK    0.0000
      4 C         127.6300   72.7010    0.7810 C.2       1 UNK    0.0000
      5 O         127.6760   72.4430    1.9650 O.2       1 UNK    0.0000
      6 C1        128.9780   73.1110    0.1310 C.3       1 UNK    0.0000
      7 N         129.0060   73.5500   -1.2820 N.am      1 UNK    0.0000
      8 C2        129.5890   74.3110    0.8960 C.3       1 UNK    0.0000
      9 C16       129.3340   72.8200   -2.3850 C.2       1 UNK    0.0000
     10 C4        128.8090   75.0030   -1.3230 C.3       1 UNK    0.0000
     11 C3        129.3190   75.5470    0.0170 C.3       1 UNK    0.0000
     12 O3        129.2310   73.2900   -3.5010 O.2       1 UNK    0.0000
     13 N1        130.4680   76.4240   -0.1490 N.am      1 UNK    0.0000
     14 C5        128.3440   76.5320    0.6140 C.2       1 UNK    0.0000
     15 C6        130.2030   77.7040    0.1550 C.2       1 UNK    0.0000
     16 O2        127.2190   76.2800    1.0010 O.2       1 UNK    0.0000
     17 N2        128.9330   77.7520    0.6260 N.am      1 UNK    0.0000
     18 O2        130.9750   78.6330    0.0190 O.2       1 UNK    0.0000
     19 C7        128.2480   78.9910    1.0330 C.3       1 UNK    0.0000
     20 C8        129.0360   79.8580    1.9960 C.2       1 UNK    0.0000
     21 C9        129.3410   81.1210    1.6760 C.2       1 UNK    0.0000
     22 C13       129.4420   79.3730    3.1750 C.2       1 UNK    0.0000
     23 C10       130.0370   81.8860    2.5180 C.2       1 UNK    0.0000
     24 C12       130.1390   80.1360    4.0180 C.2       1 UNK    0.0000
     25 C11       130.4360   81.3940    3.6910 C.2       1 UNK    0.0000
     26 HC111     131.0010   82.0190    4.3780 H         1 UNK    0.0000
     27 HC121     130.4670   79.7310    4.9730 H         1 UNK    0.0000
     28 HC101     130.2770   82.9100    2.2460 H         1 UNK    0.0000
     29 HC131     129.2070   78.3480    3.4530 H         1 UNK    0.0000
     30 HC91      129.0240   81.5320    0.7200 H         1 UNK    0.0000
     31 HC71      127.2930   78.7390    1.5010 H         1 UNK    0.0000
     32 HC72      128.0240   79.5570    0.1240 H         1 UNK    0.0000
     33 HC41      127.7450   75.2160   -1.4510 H         1 UNK    0.0000
     34 HC42      129.3660   75.4460   -2.1530 H         1 UNK    0.0000
     35 HC21      129.1960   74.4330    1.9080 H         1 UNK    0.0000
     36 HC22      130.6660   74.1550    0.9830 H         1 UNK    0.0000
     37 HC11      129.6450   72.2570    0.2680 H         1 UNK    0.0000
     38 HC151     124.4220   72.0210    0.4250 H         1 UNK    0.0000
     39 HC152     124.6860   73.7430    0.2240 H         1 UNK    0.0000
     40 HC141     126.7670   73.1970   -1.8820 H         1 UNK    0.0000
     41 HN1       131.3410   76.1070   -0.5430 H         1 UNK    0.0000
     42 HC142     126.8900   71.4415   -1.6039 H         1 UNK    0.0000
     43 HC143     125.2910   72.2302   -1.6468 H         1 UNK    0.0000
     44 HC153     125.1342   72.9592    1.7903 H         1 UNK    0.0000
     45 C17       129.8381   71.3913   -2.2163 C.3       1 UNK    0.0000
     46 H171      130.0504   70.9624   -3.1956 H         1 UNK    0.0000
     47 H172      129.0758   70.7940   -1.7159 H         1 UNK    0.0000
     48 HC171     130.7481   71.3955   -1.6164 H         1 UNK    0.0000
@<TRIPOS>BOND
     1    1    2 1
     2    1   40 1
     3    2    3 1
     4    3   38 1
     5    3   39 1
     6    4    2 1
     7    4    6 1
     8    5    4 2
     9    6   37 1
    10    7    6 1
    11    7    9 1
    12    8    6 1
    13    8   11 1
    14    8   35 1
    15    8   36 1
    16   10   11 1
    17   10    7 1
    18   10   33 1
    19   10   34 1
    20   11   13 1
    21   11   14 1
    22   12    9 2
    23   13   15 1
    24   13   41 1
    25   14   17 1
    26   15   17 1
    27   16   14 2
    28   17   19 1
    29   18   15 2
    30   19   31 1
    31   19   32 1
    32   20   19 1
    33   21   20 2
    34   22   24 2
    35   22   20 1
    36   23   21 1
    37   24   25 1
    38   25   23 2
    39   26   25 1
    40   27   24 1
    41   28   23 1
    42   29   22 1
    43   30   21 1
    44   42    1 1
    45   43    1 1
    46   44    3 1
    47   45    9 1
    48   46   45 1
    49   47   45 1
    50   48   45 1
@<TRIPOS>SUBSTRUCTURE
     1 UNK     1 RESIDUE           4 A     UNK     0 ROOT
