@<TRIPOS>MOLECULE
NIL
150 128 1 0 0
POLYMER
CHARGES


@<TRIPOS>ATOM
1 C_101 5.6684 2.7527 2.5814 C.2 1 UNK_1    0.000
2 C_102 -5.705 2.820 -2.483 C.2 1 UNK_1    0.000
3 C_103 5.664 2.790 -2.557 C.2 1 UNK_1    0.000
4 C_104 -5.670 2.832 2.481 C.2 1 UNK_1    0.000
5 C_105 4.330 2.997 2.921 C.2 1 UNK_1    0.000
6 C_106 -4.361 3.105 -2.768 C.2 1 UNK_1    0.000
7 C_107 4.324 3.058 -2.875 C.2 1 UNK_1    0.000
8 C_108 -4.332 3.106 2.801 C.2 1 UNK_1    0.000
9 C_109 4.030 4.064 3.781 C.2 1 UNK_1    0.000
10 C_110 -4.060 4.138 -3.668 C.2 1 UNK_1    0.000
11 C_111 4.035 4.102 -3.767 C.2 1 UNK_1    0.000
12 C_112 -4.048 4.137 3.708 C.2 1 UNK_1    0.000
13 C_113 5.047 4.878 4.277 C.2 1 UNK_1    0.000
14 C_114 -5.080 4.888 -4.246 C.2 1 UNK_1    0.000
15 C_115 5.059 4.880 -4.301 C.2 1 UNK_1    0.000
16 C_116 -5.076 4.896 4.259 C.2 1 UNK_1    0.000
17 C_117 6.394 4.643 3.938 C.2 1 UNK_1    0.000
18 C_118 -6.431 4.632 -3.940 C.2 1 UNK_1    0.000
19 C_119 6.406 4.636 -3.966 C.2 1 UNK_1    0.000
20 C_120 -6.422 4.644 3.925 C.2 1 UNK_1    0.000
21 C_121 6.683 3.560 3.086 C.2 1 UNK_1    0.000
22 C_122 -6.722 3.570 -3.064 C.2 1 UNK_1    0.000
23 C_123 6.686 3.563 -3.098 C.2 1 UNK_1    0.000
24 C_124 -6.698 3.586 3.039 C.2 1 UNK_1    0.000
25 H1 5.892 1.930 1.910 H 1 UNK_1    0.000
26 H2 -5.930 2.012 -1.793 H 1 UNK_1    0.000
27 H3 5.883 1.977 -1.872 H 1 UNK_1    0.000
28 H4 -5.883 2.025 1.786 H 1 UNK_1    0.000
29 H5 2.992 4.258 4.032 H 1 UNK_1    0.000
30 H6 -3.020 4.342 -3.901 H 1 UNK_1    0.000
31 H7 2.997 4.309 -4.010 H 1 UNK_1    0.000
32 H8 -3.012 4.332 3.972 H 1 UNK_1    0.000
33 H9 4.794 5.707 4.933 H 1 UNK_1    0.000
34 H10 -4.829 5.689 -4.936 H 1 UNK_1    0.000
35 H11 4.812 5.694 -4.977 H 1 UNK_1    0.000
36 H12 -4.836 5.696 4.955 H 1 UNK_1    0.000
37 H13 7.714 3.355 2.810 H 1 UNK_1    0.000
38 H14 -7.758 3.339 -2.826 H 1 UNK_1    0.000
39 H15 7.718 3.344 -2.834 H 1 UNK_1    0.000
40 H16 -7.728 3.362 2.775 H 1 UNK_1    0.000
41 C_125 -5.659 -2.836 -2.488 C.2 1 UNK_1    0.000
42 C_126 5.675 -2.769 2.571 C.2 1 UNK_1    0.000
43 C_127 -5.699 -2.828 2.485 C.2 1 UNK_1    0.000
44 C_128 5.687 -2.729 -2.591 C.2 1 UNK_1    0.000
45 C_129 -4.321 -3.109 -2.808 C.2 1 UNK_1    0.000
46 C_130 4.337 -3.046 2.889 C.2 1 UNK_1    0.000
47 C_131 -4.354 -3.114 2.767 C.2 1 UNK_1    0.000
48 C_132 4.349 -2.982 -2.931 C.2 1 UNK_1    0.000
49 C_133 -4.034 -4.139 -3.715 C.2 1 UNK_1    0.000
50 C_134 4.056 -4.089 3.785 C.2 1 UNK_1    0.000
51 C_135 -4.051 -4.145 3.668 C.2 1 UNK_1    0.000
52 C_136 4.059 -4.048 -3.796 C.2 1 UNK_1    0.000
53 C_137 -5.061 -4.901 -4.265 C.2 1 UNK_1    0.000
54 C_138 5.085 -4.859 4.319 C.2 1 UNK_1    0.000
55 C_139 -5.069 -4.895 4.249 C.2 1 UNK_1    0.000
56 C_140 5.081 -4.854 -4.292 C.2 1 UNK_1    0.000
57 C_141 -6.406 -4.651 -3.930 C.2 1 UNK_1    0.000
58 C_142 6.430 -4.608 3.982 C.2 1 UNK_1    0.000
59 C_143 -6.421 -4.639 3.946 C.2 1 UNK_1    0.000
60 C_144 6.426 -4.614 -3.949 C.2 1 UNK_1    0.000
61 C_145 -6.685 -3.592 -3.046 C.2 1 UNK_1    0.000
62 C_146 6.704 -3.534 3.114 C.2 1 UNK_1    0.000
63 C_147 -6.715 -3.578 3.069 C.2 1 UNK_1    0.000
64 C_148 6.707 -3.529 -3.096 C.2 1 UNK_1    0.000
65 H17 -5.873 -2.029 -1.793 H 1 UNK_1    0.000
66 H18 5.888 -1.956 1.885 H 1 UNK_1    0.000
67 H19 -5.925 -2.021 1.795 H 1 UNK_1    0.000
68 H20 5.905 -1.906 -1.918 H 1 UNK_1    0.000
69 H21 -2.998 -4.332 -3.978 H 1 UNK_1    0.000
70 H22 3.019 -4.303 4.029 H 1 UNK_1    0.000
71 H23 -3.010 -4.348 3.898 H 1 UNK_1    0.000
72 H24 3.022 -4.248 -4.049 H 1 UNK_1    0.000
73 H25 -4.819 -5.700 -4.961 H 1 UNK_1    0.000
74 H26 4.844 -5.674 4.997 H 1 UNK_1    0.000
75 H27 -4.816 -5.695 4.939 H 1 UNK_1    0.000
76 H28 4.833 -5.683 -4.949 H 1 UNK_1    0.000
77 H29 -7.716 -3.371 -2.783 H 1 UNK_1    0.000
78 H30 7.734 -3.307 2.849 H 1 UNK_1    0.000
79 H31 -7.751 -3.349 2.832 H 1 UNK_1    0.000
80 H32 7.737 -3.318 -2.819 H 1 UNK_1    0.000
81 H33 7.203 5.247 -4.376 H 1 UNK_1    0.000
82 H34 -7.225 5.223 -4.384 H 1 UNK_1    0.000
83 H35 7.232 -5.214 4.393 H 1 UNK_1    0.000
84 H36 7.221 -5.245 -4.333 H 1 UNK_1    0.000
85 H37 -7.214 -5.230 4.392 H 1 UNK_1    0.000
86 H38 -7.223 5.239 4.351 H 1 UNK_1    0.000
87 H39 -7.206 -5.248 -4.356 H 1 UNK_1    0.000
88 H40 7.185 5.278 4.323 H 1 UNK_1    0.000
89 Zr1 -2.504 -0.004 -0.001 ANY 1 UNK_1    0.000
90 Zr2 0.026 1.697 1.891 ANY 1 UNK_1    0.000
91 Zr3 -0.024 -1.891 1.698 ANY 1 UNK_1    0.000
92 Zr4 0.034 -1.702 -1.891 ANY 1 UNK_1    0.000
93 Zr5 2.514 -0.002 0.001 ANY 1 UNK_1    0.000
94 Zr6 -0.028 1.886 -1.698 ANY 1 UNK_1    0.000
95 O1 1.061 -0.060 1.474 ANY 1 UNK_1    0.000
96 O2 3.608 -1.425 1.348 O.co2 1 UNK_1    0.000
97 O3 3.608 -1.310 -1.453 O.co2 1 UNK_1    0.000
98 O4 3.600 1.311 1.455 O.co2 1 UNK_1    0.000
99 O5 2.051 2.410 2.680 O.co2 1 UNK_1    0.000
100 O6 -0.048 3.963 1.379 O.3 1 UNK_1    0.000
101 O7 -2.042 2.622 2.442 O.co2 1 UNK_1    0.000
102 O8 -2.070 2.669 -2.388 O.co2 1 UNK_1    0.000
103 O9 -3.603 1.351 1.414 O.co2 1 UNK_1    0.000
104 O10 -3.616 1.416 -1.315 O.co2 1 UNK_1    0.000
105 O11 -3.613 -1.426 1.312 O.co2 1 UNK_1    0.000
106 O12 -3.596 -1.359 -1.417 O.co2 1 UNK_1    0.000
107 O13 -2.032 -2.627 -2.443 O.co2 1 UNK_1    0.000
108 O14 -2.064 -2.677 2.384 O.co2 1 UNK_1    0.000
109 O15 -1.061 -1.486 -0.058 ANY 1 UNK_1    0.000
110 O16 -1.390 -0.071 2.080 O.2 1 UNK_1    0.000
111 O17 -0.020 1.244 3.949 O.2 1 UNK_1    0.000
112 O18 0.058 -1.386 3.959 O.3 1 UNK_1    0.000
113 O19 0.057 1.381 -3.960 O.3 1 UNK_1    0.000
114 O20 -1.066 1.481 0.058 ANY 1 UNK_1    0.000
115 O21 1.393 2.080 0.072 O.2 1 UNK_1    0.000
116 O22 2.045 2.464 -2.607 O.co2 1 UNK_1    0.000
117 O23 0.014 3.946 -1.251 O.2 1 UNK_1    0.000
118 O24 3.604 1.426 -1.343 O.co2 1 UNK_1    0.000
119 O25 0.023 -3.951 1.250 O.2 1 UNK_1    0.000
120 O26 -0.037 -3.968 -1.380 O.3 1 UNK_1    0.000
121 O27 1.399 -2.083 -0.071 O.2 1 UNK_1    0.000
122 O28 2.053 -2.468 2.612 O.co2 1 UNK_1    0.000
123 O29 2.065 -2.413 -2.681 O.co2 1 UNK_1    0.000
124 O30 -0.011 -1.250 -3.949 O.2 1 UNK_1    0.000
125 O31 -1.387 0.065 -2.081 O.2 1 UNK_1    0.000
126 O32 1.063 0.056 -1.473 ANY 1 UNK_1    0.000
127 C_2 3.241 2.253 -2.238 C.2 1 UNK_1    0.000
128 C_1 3.246 2.174 2.316 C.2 1 UNK_1    0.000
129 C_4 3.249 -2.251 2.246 C.2 1 UNK_1    0.000
130 C_8 -3.261 -2.350 2.107 C.2 1 UNK_1    0.000
131 C_7 -3.233 -2.309 -2.177 C.2 1 UNK_1    0.000
132 C_6 -3.266 2.341 -2.110 C.2 1 UNK_1    0.000
133 C_3 3.259 -2.170 -2.319 C.2 1 UNK_1    0.000
134 C_5 -3.242 2.304 2.173 C.2 1 UNK_1    0.000
135 H41 -1.962 0.055 -2.854 H 1 UNK_1    0.000
136 H42 1.950 2.866 0.063 H 1 UNK_1    0.000
137 H43 0.946 -1.651 4.234 H 1 UNK_1    0.000
138 H44 0.022 -0.377 4.056 H 1 UNK_1    0.000
139 H45 0.746 -1.629 -4.407 H 1 UNK_1    0.000
140 H46 -0.011 -4.063 -0.370 H 1 UNK_1    0.000
141 H47 -0.738 -4.407 1.625 H 1 UNK_1    0.000
142 H48 -0.922 -4.246 -1.651 H 1 UNK_1    0.000
143 H49 -1.965 -0.061 2.853 H 1 UNK_1    0.000
144 H50 1.959 -2.868 -0.061 H 1 UNK_1    0.000
145 H51 0.734 1.626 4.410 H 1 UNK_1    0.000
146 H52 0.025 0.371 -4.057 H 1 UNK_1    0.000
147 H53 0.943 1.648 -4.235 H 1 UNK_1    0.000
148 H54 -0.934 4.239 1.650 H 1 UNK_1    0.000
149 H55 -0.748 4.400 -1.626 H 1 UNK_1    0.000
150 H56 -0.021 4.058 0.370 H 1 UNK_1    0.000
@<TRIPOS>BOND
1 5 1 ar 
2 6 2 ar 
3 7 3 ar 
4 8 4 ar 
5 9 5 ar 
6 9 13 ar 
7 10 6 ar 
8 10 14 ar 
9 11 7 ar 
10 11 15 ar 
11 12 8 ar 
12 12 16 ar 
13 17 13 ar 
14 18 14 ar 
15 19 15 ar 
16 20 16 ar 
17 21 1 ar 
18 21 17 ar 
19 22 2 ar 
20 22 18 ar 
21 22 38 1 
22 23 3 ar 
23 23 19 ar 
24 23 39 1 
25 24 4 ar 
26 24 20 ar 
27 24 40 1 
28 25 1 1 
29 26 2 1 
30 27 3 1 
31 28 4 1 
32 29 9 1 
33 30 10 1 
34 31 11 1 
35 32 12 1 
36 33 13 1 
37 34 14 1 
38 35 15 1 
39 36 16 1 
40 37 21 1 
41 45 41 ar 
42 46 42 ar 
43 47 43 ar 
44 48 44 ar 
45 49 45 ar 
46 50 46 ar 
47 51 47 ar 
48 52 48 ar 
49 53 49 ar 
50 54 50 ar 
51 55 51 ar 
52 56 52 ar 
53 56 76 1 
54 57 53 ar 
55 57 87 1 
56 58 54 ar 
57 58 83 1 
58 59 55 ar 
59 59 85 1 
60 60 56 ar 
61 60 84 1 
62 61 41 ar 
63 61 57 ar 
64 61 77 1 
65 62 42 ar 
66 62 58 ar 
67 62 78 1 
68 63 43 ar 
69 63 59 ar 
70 63 79 1 
71 64 44 ar 
72 64 60 ar 
73 64 80 1 
74 65 41 1 
75 66 42 1 
76 67 43 1 
77 68 44 1 
78 69 49 1 
79 70 50 1 
80 71 51 1 
81 72 52 1 
82 73 53 1 
83 74 54 1 
84 75 55 1 
85 81 19 1 
86 82 18 1 
87 86 20 1 
88 88 17 1 
89 110 143 1 
90 111 145 1 
91 112 137 1 
92 112 138 1 
93 113 146 1 
94 113 147 1 
95 115 136 1 
96 117 149 1 
97 119 141 1 
98 120 140 1 
99 120 142 1 
100 121 144 1 
101 122 129 2 
102 123 133 2 
103 124 139 1 
104 125 135 1 
105 127 7 1 
106 127 116 2 
107 127 118 2 
108 128 5 1 
109 128 98 2 
110 128 99 2 
111 129 46 1 
112 129 96 2 
113 130 47 1 
114 130 105 2 
115 130 108 2 
116 131 45 1 
117 131 106 2 
118 131 107 2 
119 132 6 1 
120 132 102 2 
121 132 104 2 
122 133 48 1 
123 133 97 2 
124 134 8 1 
125 134 101 2 
126 134 103 2 
127 148 100 1 
128 150 100 1 
@<TRIPOS>SUBSTRUCTURE
1 UNK_1 1 RESIDUE 1 A UNK 1
