@<TRIPOS>MOLECULE

150 128 1 0 0
SMALL
NO_CHARGES


@<TRIPOS>ATOM
      1 C1          5.6684    2.7527    2.5814 C.ar      1 UNK    0.0000
      2 C2         -5.7050    2.8196   -2.4827 C.ar      1 UNK    0.0000
      3 C3          5.6639    2.7899   -2.5566 C.ar      1 UNK    0.0000
      4 C4         -5.6703    2.8318    2.4807 C.ar      1 UNK    0.0000
      5 C5          4.3296    2.9973    2.9210 C.ar      1 UNK    0.0000
      6 C6         -4.3613    3.1054   -2.7675 C.ar      1 UNK    0.0000
      7 C7          4.3241    3.0581   -2.8753 C.ar      1 UNK    0.0000
      8 C8         -4.3324    3.1060    2.8012 C.ar      1 UNK    0.0000
      9 C9          4.0305    4.0645    3.7814 C.ar      1 UNK    0.0000
     10 C10        -4.0603    4.1379   -3.6681 C.ar      1 UNK    0.0000
     11 C11         4.0355    4.1018   -3.7672 C.ar      1 UNK    0.0000
     12 C12        -4.0476    4.1372    3.7081 C.ar      1 UNK    0.0000
     13 C13         5.0468    4.8778    4.2774 C.ar      1 UNK    0.0000
     14 C14        -5.0802    4.8878   -4.2459 C.ar      1 UNK    0.0000
     15 C15         5.0591    4.8799   -4.3010 C.ar      1 UNK    0.0000
     16 C16        -5.0764    4.8965    4.2588 C.ar      1 UNK    0.0000
     17 C17         6.3937    4.6427    3.9382 C.ar      1 UNK    0.0000
     18 C18        -6.4312    4.6318   -3.9404 C.ar      1 UNK    0.0000
     19 C19         6.4056    4.6360   -3.9659 C.ar      1 UNK    0.0000
     20 C20        -6.4217    4.6445    3.9246 C.ar      1 UNK    0.0000
     21 C21         6.6830    3.5596    3.0861 C.ar      1 UNK    0.0000
     22 C22        -6.7224    3.5695   -3.0642 C.ar      1 UNK    0.0000
     23 C23         6.6861    3.5635   -3.0976 C.ar      1 UNK    0.0000
     24 C24        -6.6976    3.5859    3.0387 C.ar      1 UNK    0.0000
     25 H1          5.8921    1.9296    1.9100 H         1 UNK    0.0000
     26 H2         -5.9298    2.0118   -1.7930 H         1 UNK    0.0000
     27 H3          5.8826    1.9767   -1.8718 H         1 UNK    0.0000
     28 H4         -5.8827    2.0254    1.7858 H         1 UNK    0.0000
     29 H5          2.9920    4.2585    4.0322 H         1 UNK    0.0000
     30 H6         -3.0197    4.3419   -3.9007 H         1 UNK    0.0000
     31 H7          2.9973    4.3090   -4.0100 H         1 UNK    0.0000
     32 H8         -3.0123    4.3319    3.9722 H         1 UNK    0.0000
     33 H9          4.7942    5.7072    4.9329 H         1 UNK    0.0000
     34 H10        -4.8286    5.6895   -4.9355 H         1 UNK    0.0000
     35 H11         4.8121    5.6945   -4.9770 H         1 UNK    0.0000
     36 H12        -4.8362    5.6961    4.9548 H         1 UNK    0.0000
     37 H13         7.7143    3.3547    2.8104 H         1 UNK    0.0000
     38 H14        -7.7576    3.3391   -2.8256 H         1 UNK    0.0000
     39 H15         7.7176    3.3436   -2.8336 H         1 UNK    0.0000
     40 H16        -7.7282    3.3617    2.7752 H         1 UNK    0.0000
     41 C25        -5.6594   -2.8356   -2.4877 C.ar      1 UNK    0.0000
     42 C26         5.6754   -2.7690    2.5712 C.ar      1 UNK    0.0000
     43 C27        -5.6987   -2.8282    2.4847 C.ar      1 UNK    0.0000
     44 C28         5.6870   -2.7290   -2.5909 C.ar      1 UNK    0.0000
     45 C29        -4.3213   -3.1092   -2.8080 C.ar      1 UNK    0.0000
     46 C30         4.3372   -3.0463    2.8893 C.ar      1 UNK    0.0000
     47 C31        -4.3545   -3.1141    2.7668 C.ar      1 UNK    0.0000
     48 C32         4.3490   -2.9817   -2.9310 C.ar      1 UNK    0.0000
     49 C33        -4.0338   -4.1395   -3.7147 C.ar      1 UNK    0.0000
     50 C34         4.0555   -4.0889    3.7854 C.ar      1 UNK    0.0000
     51 C35        -4.0508   -4.1452    3.6680 C.ar      1 UNK    0.0000
     52 C36         4.0586   -4.0481   -3.7957 C.ar      1 UNK    0.0000
     53 C37        -5.0605   -4.9006   -4.2652 C.ar      1 UNK    0.0000
     54 C38         5.0854   -4.8590    4.3189 C.ar      1 UNK    0.0000
     55 C39        -5.0693   -4.8946    4.2489 C.ar      1 UNK    0.0000
     56 C40         5.0808   -4.8541   -4.2917 C.ar      1 UNK    0.0000
     57 C41        -6.4056   -4.6514   -3.9300 C.ar      1 UNK    0.0000
     58 C42         6.4304   -4.6082    3.9825 C.ar      1 UNK    0.0000
     59 C43        -6.4208   -4.6389    3.9457 C.ar      1 UNK    0.0000
     60 C44         6.4260   -4.6142   -3.9490 C.ar      1 UNK    0.0000
     61 C45        -6.6847   -3.5924   -3.0455 C.ar      1 UNK    0.0000
     62 C46         6.7039   -3.5338    3.1137 C.ar      1 UNK    0.0000
     63 C47        -6.7149   -3.5782    3.0686 C.ar      1 UNK    0.0000
     64 C48         6.7075   -3.5294   -3.0962 C.ar      1 UNK    0.0000
     65 H17        -5.8730   -2.0292   -1.7932 H         1 UNK    0.0000
     66 H18         5.8882   -1.9557    1.8846 H         1 UNK    0.0000
     67 H19        -5.9249   -2.0209    1.7949 H         1 UNK    0.0000
     68 H20         5.9055   -1.9060   -1.9176 H         1 UNK    0.0000
     69 H21        -2.9979   -4.3319   -3.9778 H         1 UNK    0.0000
     70 H22         3.0190   -4.3027    4.0295 H         1 UNK    0.0000
     71 H23        -3.0097   -4.3485    3.8983 H         1 UNK    0.0000
     72 H24         3.0218   -4.2485   -4.0486 H         1 UNK    0.0000
     73 H25        -4.8193   -5.7001   -4.9611 H         1 UNK    0.0000
     74 H26         4.8443   -5.6740    4.9967 H         1 UNK    0.0000
     75 H27        -4.8164   -5.6954    4.9391 H         1 UNK    0.0000
     76 H28         4.8335   -5.6834   -4.9494 H         1 UNK    0.0000
     77 H29        -7.7160   -3.3709   -2.7828 H         1 UNK    0.0000
     78 H30         7.7336   -3.3066    2.8493 H         1 UNK    0.0000
     79 H31        -7.7507   -3.3486    2.8320 H         1 UNK    0.0000
     80 H32         7.7371   -3.3183   -2.8186 H         1 UNK    0.0000
     81 H33         7.2031    5.2471   -4.3761 H         1 UNK    0.0000
     82 H34        -7.2254    5.2235   -4.3843 H         1 UNK    0.0000
     83 H35         7.2316   -5.2141    4.3933 H         1 UNK    0.0000
     84 H36         7.2213   -5.2449   -4.3328 H         1 UNK    0.0000
     85 H37        -7.2138   -5.2304    4.3920 H         1 UNK    0.0000
     86 H38        -7.2230    5.2391    4.3515 H         1 UNK    0.0000
     87 H39        -7.2058   -5.2483   -4.3560 H         1 UNK    0.0000
     88 H40         7.1852    5.2778    4.3228 H         1 UNK    0.0000
     89 Zr1        -2.5038   -0.0038   -0.0007 Zr        1 UNK    0.0000
     90 Zr2         0.0262    1.6966    1.8914 Zr        1 UNK    0.0000
     91 Zr3        -0.0238   -1.8913    1.6978 Zr        1 UNK    0.0000
     92 Zr4         0.0336   -1.7018   -1.8914 Zr        1 UNK    0.0000
     93 Zr5         2.5140   -0.0015    0.0012 Zr        1 UNK    0.0000
     94 Zr6        -0.0276    1.8860   -1.6983 Zr        1 UNK    0.0000
     95 O1          1.0611   -0.0599    1.4743 O         1 UNK    0.0000
     96 O2          3.6081   -1.4255    1.3479 O.co2     1 UNK    0.0000
     97 O3          3.6081   -1.3095   -1.4527 O.co2     1 UNK    0.0000
     98 O4          3.6001    1.3108    1.4549 O.co2     1 UNK    0.0000
     99 O5          2.0512    2.4103    2.6796 O.co2     1 UNK    0.0000
    100 O6         -0.0478    3.9635    1.3794 O.3       1 UNK    0.0000
    101 O7         -2.0423    2.6217    2.4418 O.co2     1 UNK    0.0000
    102 O8         -2.0700    2.6687   -2.3882 O.co2     1 UNK    0.0000
    103 O9         -3.6027    1.3514    1.4142 O.co2     1 UNK    0.0000
    104 O10        -3.6163    1.4157   -1.3151 O.co2     1 UNK    0.0000
    105 O11        -3.6132   -1.4258    1.3117 O.co2     1 UNK    0.0000
    106 O12        -3.5956   -1.3586   -1.4165 O.co2     1 UNK    0.0000
    107 O13        -2.0324   -2.6268   -2.4430 O.co2     1 UNK    0.0000
    108 O14        -2.0645   -2.6768    2.3841 O.co2     1 UNK    0.0000
    109 O15        -1.0609   -1.4858   -0.0583 O         1 UNK    0.0000
    110 O16        -1.3896   -0.0713    2.0799 O.3       1 UNK    0.0000
    111 O17        -0.0204    1.2439    3.9492 O.3       1 UNK    0.0000
    112 O18         0.0578   -1.3862    3.9590 O.3       1 UNK    0.0000
    113 O19         0.0565    1.3807   -3.9602 O.3       1 UNK    0.0000
    114 O20        -1.0658    1.4810    0.0575 O         1 UNK    0.0000
    115 O21         1.3928    2.0801    0.0716 O.3       1 UNK    0.0000
    116 O22         2.0450    2.4644   -2.6070 O.co2     1 UNK    0.0000
    117 O23         0.0141    3.9463   -1.2506 O.3       1 UNK    0.0000
    118 O24         3.6036    1.4264   -1.3428 O.co2     1 UNK    0.0000
    119 O25         0.0232   -3.9514    1.2495 O.3       1 UNK    0.0000
    120 O26        -0.0369   -3.9683   -1.3800 O.3       1 UNK    0.0000
    121 O27         1.3994   -2.0833   -0.0706 O.3       1 UNK    0.0000
    122 O28         2.0529   -2.4681    2.6118 O.co2     1 UNK    0.0000
    123 O29         2.0648   -2.4125   -2.6809 O.co2     1 UNK    0.0000
    124 O30        -0.0111   -1.2499   -3.9489 O.3       1 UNK    0.0000
    125 O31        -1.3868    0.0646   -2.0811 O.3       1 UNK    0.0000
    126 O32         1.0627    0.0563   -1.4731 O         1 UNK    0.0000
    127 C49         3.2411    2.2532   -2.2377 C.2       1 UNK    0.0000
    128 C50         3.2459    2.1739    2.3161 C.2       1 UNK    0.0000
    129 C51         3.2490   -2.2511    2.2456 C.2       1 UNK    0.0000
    130 C52        -3.2611   -2.3500    2.1074 C.2       1 UNK    0.0000
    131 C53        -3.2327   -2.3088   -2.1768 C.2       1 UNK    0.0000
    132 C54        -3.2661    2.3410   -2.1104 C.2       1 UNK    0.0000
    133 C55         3.2589   -2.1698   -2.3191 C.2       1 UNK    0.0000
    134 C56        -3.2422    2.3036    2.1733 C.2       1 UNK    0.0000
    135 H41        -1.9621    0.0546   -2.8536 H         1 UNK    0.0000
    136 H42         1.9500    2.8660    0.0630 H         1 UNK    0.0000
    137 H43         0.9460   -1.6507    4.2336 H         1 UNK    0.0000
    138 H44         0.0225   -0.3767    4.0565 H         1 UNK    0.0000
    139 H45         0.7464   -1.6295   -4.4072 H         1 UNK    0.0000
    140 H46        -0.0107   -4.0630   -0.3702 H         1 UNK    0.0000
    141 H47        -0.7381   -4.4069    1.6246 H         1 UNK    0.0000
    142 H48        -0.9222   -4.2458   -1.6511 H         1 UNK    0.0000
    143 H49        -1.9649   -0.0614    2.8525 H         1 UNK    0.0000
    144 H50         1.9589   -2.8675   -0.0614 H         1 UNK    0.0000
    145 H51         0.7343    1.6261    4.4097 H         1 UNK    0.0000
    146 H52         0.0254    0.3711   -4.0570 H         1 UNK    0.0000
    147 H53         0.9434    1.6484   -4.2353 H         1 UNK    0.0000
    148 H54        -0.9340    4.2388    1.6498 H         1 UNK    0.0000
    149 H55        -0.7482    4.4001   -1.6257 H         1 UNK    0.0000
    150 H56        -0.0211    4.0577    0.3697 H         1 UNK    0.0000
@<TRIPOS>BOND
     1    1    5 ar
     2    1   21 ar
     3    1   25 1
     4    2    6 ar
     5    2   22 ar
     6    2   26 1
     7    3    7 ar
     8    3   23 ar
     9    3   27 1
    10    4    8 ar
    11    4   24 ar
    12    4   28 1
    13    5    9 ar
    14    5  128 1
    15    6   10 ar
    16    6  132 1
    17    7   11 ar
    18    7  127 1
    19    8   12 ar
    20    8  134 1
    21    9   13 ar
    22    9   29 1
    23   10   14 ar
    24   10   30 1
    25   11   15 ar
    26   11   31 1
    27   12   16 ar
    28   12   32 1
    29   13   17 ar
    30   13   33 1
    31   14   18 ar
    32   14   34 1
    33   15   19 ar
    34   15   35 1
    35   16   20 ar
    36   16   36 1
    37   17   21 ar
    38   17   88 1
    39   18   22 ar
    40   18   82 1
    41   19   23 ar
    42   19   81 1
    43   20   24 ar
    44   20   86 1
    45   21   37 1
    46   22   38 1
    47   23   39 1
    48   24   40 1
    49   41   45 ar
    50   41   61 ar
    51   41   65 1
    52   42   46 ar
    53   42   62 ar
    54   42   66 1
    55   43   47 ar
    56   43   63 ar
    57   43   67 1
    58   44   48 ar
    59   44   64 ar
    60   44   68 1
    61   45   49 ar
    62   45  131 1
    63   46   50 ar
    64   46  129 1
    65   47   51 ar
    66   47  130 1
    67   48   52 ar
    68   48  133 1
    69   49   53 ar
    70   49   69 1
    71   50   54 ar
    72   50   70 1
    73   51   55 ar
    74   51   71 1
    75   52   56 ar
    76   52   72 1
    77   53   57 ar
    78   53   73 1
    79   54   58 ar
    80   54   74 1
    81   55   59 ar
    82   55   75 1
    83   56   60 ar
    84   56   76 1
    85   57   61 ar
    86   57   87 1
    87   58   62 ar
    88   58   83 1
    89   59   63 ar
    90   59   85 1
    91   60   64 ar
    92   60   84 1
    93   61   77 1
    94   62   78 1
    95   63   79 1
    96   64   80 1
    97   96  129 2
    98   97  133 2
    99   98  128 2
   100   99  128 2
   101  100  148 1
   102  100  150 1
   103  101  134 2
   104  102  132 2
   105  103  134 2
   106  104  132 2
   107  105  130 2
   108  106  131 2
   109  107  131 2
   110  108  130 2
   111  110  143 1
   112  111  145 1
   113  112  137 1
   114  112  138 1
   115  113  146 1
   116  113  147 1
   117  115  136 1
   118  116  127 2
   119  117  149 1
   120  118  127 2
   121  119  141 1
   122  120  140 1
   123  120  142 1
   124  121  144 1
   125  122  129 2
   126  123  133 2
   127  124  139 1
   128  125  135 1
@<TRIPOS>SUBSTRUCTURE
     1 UNK     1 RESIDUE           4 A     UNK     0 ROOT
