@<TRIPOS>MOLECULE
NIL
204 213 1 0 0
POLYMER
CHARGES


@<TRIPOS>ATOM
1 C_2345 133.717 100.93 -0.0244901 C.2 1 NIL_1    0.000
2 O 132.867 100.095 -0.267 O.2 1 NIL_1    0.000
3 N 134.827 101.162 -0.755 N.am 1 NIL_1    0.000
4 N 133.728 101.805 1.013 N.am 1 NIL_1    0.000
5 C_2307 135.661 102.237 -0.218 C.3 1 NIL_1    0.000
6 C_2691 135.196 100.517 -2.025 C.3 1 NIL_1    0.000
7 C_2609 132.719 101.866 2.091 C.3 1 NIL_1    0.000
8 C_2343 134.814 102.609 0.983 C.2 1 NIL_1    0.000
9 C_2308 137.093 101.871 0.197 C.3 1 NIL_1    0.000
10 C_2306 135.870 103.449 -1.128 C.3 1 NIL_1    0.000
11 C_2701 135.252 99.008 -1.912 C.2 1 NIL_1    0.000
12 C_2608 131.290 101.507 1.733 C.2 1 NIL_1    0.000
13 O 135.056 103.488 1.790 O.2 1 NIL_1    0.000
14 C_2325 137.823 103.236 0.275 C.3 1 NIL_1    0.000
15 N 137.026 104.170 -0.570 N.am 1 NIL_1    0.000
16 O 136.143 98.432 -1.318 O.2 1 NIL_1    0.000
17 O 134.134 98.429 -2.421 O.3 1 NIL_1    0.000
18 C_2607 130.733 100.390 2.215 C.2 1 NIL_1    0.000
19 C_2598 130.566 102.299 0.933 C.2 1 NIL_1    0.000
20 C_2326 139.307 103.139 -0.119 C.2 1 NIL_1    0.000
21 C_2323 137.189 105.510 -0.758 C.2 1 NIL_1    0.000
22 C_3045 133.854 96.996 -2.384 C.3 1 NIL_1    0.000
23 C_2601 129.476 100.070 1.909 C.2 1 NIL_1    0.000
24 C_2599 129.308 101.979 0.623 C.2 1 NIL_1    0.000
25 N 140.213 102.583 0.746 N.am 1 NIL_1    0.000
26 O 139.685 103.589 -1.185 O.2 1 NIL_1    0.000
27 C_2322 138.095 106.264 0.226 C.3 1 NIL_1    0.000
28 O 136.532 106.057 -1.619 O.2 1 NIL_1    0.000
29 C_3047 132.482 96.819 -3.073 C.3 1 NIL_1    0.000
30 C_3049 133.752 96.492 -0.923 C.3 1 NIL_1    0.000
31 C_3051 134.932 96.218 -3.177 C.3 1 NIL_1    0.000
32 C_2600 128.761 100.866 1.112 C.2 1 NIL_1    0.000
33 C_2581 139.872 101.769 1.939 C.3 1 NIL_1    0.000
34 C_2328 141.617 103.079 0.761 C.3 1 NIL_1    0.000
35 N 138.694 107.599 -0.092 N.am 1 NIL_1    0.000
36 C_2584 139.765 100.259 1.633 C.3 1 NIL_1    0.000
37 C_2337 142.704 102.176 0.168 C.2 1 NIL_1    0.000
38 C_2582 138.048 108.421 -1.143 C.3 1 NIL_1    0.000
39 C_2331 139.638 108.103 0.759 C.2 1 NIL_1    0.000
40 O 139.453 99.554 2.852 O.3 1 NIL_1    0.000
41 N 143.907 102.733 -0.170 N.am 1 NIL_1    0.000
42 O 142.539 100.977 0.054 O.2 1 NIL_1    0.000
43 C_2587 136.726 109.040 -0.647 C.3 1 NIL_1    0.000
44 O 139.769 107.641 1.878 O.2 1 NIL_1    0.000
45 C_2330 140.629 109.174 0.296 C.3 1 NIL_1    0.000
46 C_2586 139.229 98.136 2.689 C.3 1 NIL_1    0.000
47 C_2335 144.218 104.166 -0.370 C.3 1 NIL_1    0.000
48 C_2318 145.142 101.958 -0.390 C.3 1 NIL_1    0.000
49 O 136.281 110.020 -1.607 O.3 1 NIL_1    0.000
50 N 141.109 109.161 -1.115 N.am 1 NIL_1    0.000
51 C_2311 140.087 110.586 0.591 C.3 1 NIL_1    0.000
52 C_2320 145.644 104.253 -0.942 C.3 1 NIL_1    0.000
53 C_2336 143.258 104.892 -1.299 C.2 1 NIL_1    0.000
54 C_2319 146.310 102.970 -0.435 C.3 1 NIL_1    0.000
55 C_2589 135.163 110.820 -1.169 C.3 1 NIL_1    0.000
56 C_2334 141.586 108.129 -1.866 C.2 1 NIL_1    0.000
57 C_2309 141.096 110.534 -1.631 C.3 1 NIL_1    0.000
58 C_2310 140.796 111.467 -0.449 C.3 1 NIL_1    0.000
59 N 143.044 106.221 -1.099 N.am 1 NIL_1    0.000
60 O 142.662 104.284 -2.168 O.2 1 NIL_1    0.000
61 N 147.527 102.590 -1.153 N.am 1 NIL_1    0.000
62 C_2339 146.918 103.256 0.921 C.2 1 NIL_1    0.000
63 C_2333 141.677 106.739 -1.272 C.3 1 NIL_1    0.000
64 O 141.938 108.309 -3.017 O.2 1 NIL_1    0.000
65 N 140.117 112.700 -0.820 N.am 1 NIL_1    0.000
66 C_2347 142.071 112.052 0.110 C.2 1 NIL_1    0.000
67 C_2583 143.908 107.130 -0.303 C.3 1 NIL_1    0.000
68 C_2341 148.649 102.791 -0.433 C.2 1 NIL_1    0.000
69 C_2710 147.452 102.025 -2.512 C.3 1 NIL_1    0.000
70 O 146.314 103.546 1.936 O.2 1 NIL_1    0.000
71 N 148.267 103.190 0.806 N.am 1 NIL_1    0.000
72 C_2569 140.847 113.806 -0.576 C.2 1 NIL_1    0.000
73 C_2721 138.823 112.615 -1.516 C.3 1 NIL_1    0.000
74 O 143.007 111.422 0.567 O.2 1 NIL_1    0.000
75 N 142.007 113.400 0.007 N.am 1 NIL_1    0.000
76 C_2590 144.911 107.913 -1.180 C.3 1 NIL_1    0.000
77 O 149.785 102.637 -0.840 O.2 1 NIL_1    0.000
78 C_2712 147.700 100.531 -2.503 C.2 1 NIL_1    0.000
79 C_2577 149.182 103.645 1.873 C.3 1 NIL_1    0.000
80 O 140.513 114.942 -0.854 O.2 1 NIL_1    0.000
81 C_2725 137.766 113.494 -0.896 C.2 1 NIL_1    0.000
82 C_2579 143.122 114.266 0.439 C.3 1 NIL_1    0.000
83 O 145.766 108.732 -0.346 O.3 1 NIL_1    0.000
84 O 146.831 99.735 -2.206 O.2 1 NIL_1    0.000
85 O 149.031 100.263 -2.498 O.3 1 NIL_1    0.000
86 C_2578 150.569 103.034 1.910 C.2 1 NIL_1    0.000
87 O 137.146 114.256 -1.829 O.3 1 NIL_1    0.000
88 O 137.567 113.531 0.303 O.2 1 NIL_1    0.000
89 C_2580 142.895 115.763 0.497 C.2 1 NIL_1    0.000
90 C_2592 146.828 108.039 0.350 C.3 1 NIL_1    0.000
91 C_3053 149.620 99.044 -1.948 C.3 1 NIL_1    0.000
92 C_2597 150.735 101.756 2.266 C.2 1 NIL_1    0.000
93 C_2593 151.646 103.759 1.580 C.2 1 NIL_1    0.000
94 C_3063 136.140 115.261 -1.515 C.3 1 NIL_1    0.000
95 C_2602 142.319 116.320 1.568 C.2 1 NIL_1    0.000
96 C_2606 143.259 116.547 -0.524 C.2 1 NIL_1    0.000
97 C_3055 151.146 99.194 -2.141 C.3 1 NIL_1    0.000
98 C_3057 149.133 97.778 -2.699 C.3 1 NIL_1    0.000
99 C_3059 149.300 98.961 -0.434 C.3 1 NIL_1    0.000
100 C_2596 151.953 101.211 2.290 C.2 1 NIL_1    0.000
101 C_2594 152.865 103.217 1.603 C.2 1 NIL_1    0.000
102 C_3065 136.754 116.369 -0.624 C.3 1 NIL_1    0.000
103 C_3067 134.906 114.603 -0.850 C.3 1 NIL_1    0.000
104 C_3071 135.722 115.869 -2.872 C.3 1 NIL_1    0.000
105 C_2603 142.111 117.637 1.619 C.2 1 NIL_1    0.000
106 C_2605 143.052 117.864 -0.477 C.2 1 NIL_1    0.000
107 C_2595 153.018 101.940 1.956 C.2 1 NIL_1    0.000
108 C_2604 142.478 118.410 0.596 C.2 1 NIL_1    0.000
109 H_2604 142.311 119.483 0.637 H 1 NIL_1    0.000
110 H_2595 154.010 101.496 1.974 H 1 NIL_1    0.000
111 H_2605 143.350 118.492 -1.313 H 1 NIL_1    0.000
112 H_2603 141.642 118.080 2.494 H 1 NIL_1    0.000
113 H_30711 135.303 115.102 -3.528 H 1 NIL_1    0.000
114 H_30712 136.581 116.319 -3.376 H 1 NIL_1    0.000
115 H_30713 134.966 116.645 -2.730 H 1 NIL_1    0.000
116 H_30671 134.565 113.748 -1.438 H 1 NIL_1    0.000
117 H_30672 134.081 115.316 -0.784 H 1 NIL_1    0.000
118 H_30673 135.126 114.260 0.162 H 1 NIL_1    0.000
119 H_30651 136.995 115.999 0.374 H 1 NIL_1    0.000
120 H_30652 136.052 117.198 -0.507 H 1 NIL_1    0.000
121 H_30653 137.672 116.758 -1.075 H 1 NIL_1    0.000
122 H_2594 153.731 103.817 1.333 H 1 NIL_1    0.000
123 H_2596 152.076 100.173 2.585 H 1 NIL_1    0.000
124 H_30591 148.234 98.820 -0.254 H 1 NIL_1    0.000
125 H_30592 149.608 99.879 0.071 H 1 NIL_1    0.000
126 H_30593 149.829 98.122 0.027 H 1 NIL_1    0.000
127 H_30571 149.723 96.906 -2.401 H 1 NIL_1    0.000
128 H_30572 149.234 97.905 -3.780 H 1 NIL_1    0.000
129 H_30573 148.089 97.549 -2.473 H 1 NIL_1    0.000
130 H_30551 151.513 100.074 -1.609 H 1 NIL_1    0.000
131 H_30552 151.392 99.310 -3.200 H 1 NIL_1    0.000
132 H_30553 151.677 98.317 -1.760 H 1 NIL_1    0.000
133 H_2606 143.723 116.111 -1.407 H 1 NIL_1    0.000
134 H_2602 142.012 115.698 2.405 H 1 NIL_1    0.000
135 H_2593 151.533 104.800 1.285 H 1 NIL_1    0.000
136 H_2597 149.872 101.152 2.539 H 1 NIL_1    0.000
137 H_25921 147.458 107.522 -0.380 H 1 NIL_1    0.000
138 H_25922 146.404 107.319 1.055 H 1 NIL_1    0.000
139 H_25923 147.428 108.769 0.898 H 1 NIL_1    0.000
140 H_25791 143.965 114.063 -0.226 H 1 NIL_1    0.000
141 H_25792 143.423 113.934 1.437 H 1 NIL_1    0.000
142 H_25771 148.706 103.457 2.840 H 1 NIL_1    0.000
143 H_25772 149.274 104.729 1.768 H 1 NIL_1    0.000
144 H_25901 145.534 107.232 -1.769 H 1 NIL_1    0.000
145 H_25902 144.369 108.574 -1.858 H 1 NIL_1    0.000
146 H_27211 138.439 111.594 -1.495 H 1 NIL_1    0.000
147 H_27212 138.963 112.914 -2.560 H 1 NIL_1    0.000
148 H_27101 148.215 102.491 -3.142 H 1 NIL_1    0.000
149 H_27102 146.469 102.202 -2.952 H 1 NIL_1    0.000
150 H_25831 144.460 106.575 0.452 H 1 NIL_1    0.000
151 H_25832 143.283 107.844 0.237 H 1 NIL_1    0.000
152 H_23331 141.213 106.696 -0.294 H 1 NIL_1    0.000
153 H_23332 141.093 106.094 -1.932 H 1 NIL_1    0.000
154 H_23091 140.313 110.603 -2.392 H 1 NIL_1    0.000
155 H_23092 142.059 110.782 -2.088 H 1 NIL_1    0.000
156 H_25891 135.435 111.355 -0.254 H 1 NIL_1    0.000
157 H_25892 134.302 110.174 -0.978 H 1 NIL_1    0.000
158 H_25893 134.914 111.540 -1.952 H 1 NIL_1    0.000
159 H_23201 145.612 104.248 -2.035 H 1 NIL_1    0.000
160 H_23202 146.167 105.157 -0.618 H 1 NIL_1    0.000
161 H_23111 139.007 110.616 0.442 H 1 NIL_1    0.000
162 H_23112 140.291 110.897 1.618 H 1 NIL_1    0.000
163 H_23181 145.043 101.443 -1.349 H 1 NIL_1    0.000
164 H_23182 145.290 101.224 0.409 H 1 NIL_1    0.000
165 H_2335 144.182 104.620 0.620 H 1 NIL_1    0.000
166 H_25861 140.064 97.695 2.137 H 1 NIL_1    0.000
167 H_25862 138.297 97.979 2.140 H 1 NIL_1    0.000
168 H_25863 139.155 97.668 3.676 H 1 NIL_1    0.000
169 H_2330 141.518 109.035 0.916 H 1 NIL_1    0.000
170 H_25871 135.952 108.279 -0.519 H 1 NIL_1    0.000
171 H_25872 136.898 109.544 0.307 H 1 NIL_1    0.000
172 H_25821 137.913 107.844 -2.059 H 1 NIL_1    0.000
173 H_25822 138.690 109.249 -1.422 H 1 NIL_1    0.000
174 H_25841 138.978 100.066 0.902 H 1 NIL_1    0.000
175 H_25842 140.713 99.873 1.251 H 1 NIL_1    0.000
176 H_23281 141.920 103.277 1.793 H 1 NIL_1    0.000
177 H_23282 141.631 104.042 0.260 H 1 NIL_1    0.000
178 H_25811 138.929 102.112 2.370 H 1 NIL_1    0.000
179 H_25812 140.638 101.903 2.707 H 1 NIL_1    0.000
180 H_2600 127.735 100.607 0.865 H 1 NIL_1    0.000
181 H_30511 135.902 96.250 -2.677 H 1 NIL_1    0.000
182 H_30512 135.048 96.634 -4.182 H 1 NIL_1    0.000
183 H_30513 134.649 95.167 -3.273 H 1 NIL_1    0.000
184 H_30491 133.030 97.086 -0.359 H 1 NIL_1    0.000
185 H_30492 134.713 96.537 -0.409 H 1 NIL_1    0.000
186 H_30493 133.417 95.451 -0.906 H 1 NIL_1    0.000
187 H_30471 132.510 97.185 -4.101 H 1 NIL_1    0.000
188 H_30472 131.705 97.371 -2.538 H 1 NIL_1    0.000
189 H_30473 132.193 95.765 -3.097 H 1 NIL_1    0.000
190 H_23221 137.504 106.371 1.140 H 1 NIL_1    0.000
191 H_23222 138.933 105.608 0.459 H 1 NIL_1    0.000
192 H_2599 128.725 102.629 -0.026 H 1 NIL_1    0.000
193 H_2601 129.033 99.162 2.311 H 1 NIL_1    0.000
194 H_2598 131.001 103.210 0.530 H 1 NIL_1    0.000
195 H_2607 131.305 99.733 2.866 H 1 NIL_1    0.000
196 H_2325 137.781 103.607 1.302 H 1 NIL_1    0.000
197 H_23061 136.113 103.137 -2.146 H 1 NIL_1    0.000
198 H_23062 134.977 104.082 -1.140 H 1 NIL_1    0.000
199 H_23081 137.556 101.251 -0.575 H 1 NIL_1    0.000
200 H_23082 137.111 101.329 1.142 H 1 NIL_1    0.000
201 H_26091 132.712 102.883 2.496 H 1 NIL_1    0.000
202 H_26092 133.063 101.207 2.894 H 1 NIL_1    0.000
203 H_26911 136.176 100.859 -2.364 H 1 NIL_1    0.000
204 H_26912 134.450 100.774 -2.784 H 1 NIL_1    0.000
@<TRIPOS>BOND
1 1 3 1 
2 1 4 1 
3 2 1 2 
4 4 7 1 
5 5 3 1 
6 6 3 1 
7 6 203 1 
8 6 204 1 
9 7 201 1 
10 7 202 1 
11 8 4 1 
12 8 5 1 
13 9 14 1 
14 9 5 1 
15 9 199 1 
16 9 200 1 
17 10 5 1 
18 10 15 1 
19 10 197 1 
20 10 198 1 
21 11 6 1 
22 12 7 1 
23 13 8 2 
24 14 20 1 
25 14 196 1 
26 15 14 1 
27 16 11 2 
28 17 11 1 
29 18 12 2 
30 18 195 1 
31 19 24 2 
32 19 12 1 
33 19 194 1 
34 21 15 1 
35 22 17 1 
36 23 18 1 
37 23 193 1 
38 24 32 1 
39 24 192 1 
40 25 33 1 
41 25 34 1 
42 25 20 1 
43 26 20 2 
44 27 21 1 
45 27 35 1 
46 27 190 1 
47 27 191 1 
48 28 21 2 
49 29 22 1 
50 29 187 1 
51 29 188 1 
52 29 189 1 
53 30 22 1 
54 30 184 1 
55 30 185 1 
56 30 186 1 
57 31 22 1 
58 31 181 1 
59 31 182 1 
60 31 183 1 
61 32 23 2 
62 32 180 1 
63 33 36 1 
64 33 178 1 
65 33 179 1 
66 34 37 1 
67 34 176 1 
68 34 177 1 
69 35 38 1 
70 36 40 1 
71 36 174 1 
72 36 175 1 
73 37 41 1 
74 38 43 1 
75 38 172 1 
76 38 173 1 
77 39 35 1 
78 39 45 1 
79 42 37 2 
80 43 49 1 
81 43 170 1 
82 43 171 1 
83 44 39 2 
84 45 169 1 
85 46 40 1 
86 46 166 1 
87 46 167 1 
88 46 168 1 
89 47 41 1 
90 47 165 1 
91 48 54 1 
92 48 41 1 
93 48 163 1 
94 48 164 1 
95 50 45 1 
96 50 56 1 
97 51 45 1 
98 51 58 1 
99 51 161 1 
100 51 162 1 
101 52 47 1 
102 52 54 1 
103 52 159 1 
104 52 160 1 
105 53 47 1 
106 54 61 1 
107 55 49 1 
108 55 156 1 
109 55 157 1 
110 55 158 1 
111 57 58 1 
112 57 50 1 
113 57 154 1 
114 57 155 1 
115 59 67 1 
116 59 63 1 
117 59 53 1 
118 60 53 2 
119 62 71 1 
120 62 54 1 
121 63 56 1 
122 63 152 1 
123 63 153 1 
124 64 56 2 
125 65 58 1 
126 65 72 1 
127 66 58 1 
128 67 150 1 
129 67 151 1 
130 68 61 1 
131 68 71 1 
132 69 61 1 
133 69 148 1 
134 69 149 1 
135 70 62 2 
136 71 79 1 
137 73 65 1 
138 73 146 1 
139 73 147 1 
140 74 66 2 
141 75 82 1 
142 75 72 1 
143 75 66 1 
144 76 83 1 
145 76 67 1 
146 76 144 1 
147 76 145 1 
148 77 68 2 
149 78 69 1 
150 79 142 1 
151 79 143 1 
152 80 72 2 
153 81 73 1 
154 82 140 1 
155 82 141 1 
156 84 78 2 
157 85 78 1 
158 86 92 1 
159 86 79 1 
160 87 81 1 
161 88 81 2 
162 89 82 1 
163 90 83 1 
164 90 137 1 
165 90 138 1 
166 90 139 1 
167 91 85 1 
168 92 136 1 
169 93 101 1 
170 93 86 2 
171 93 135 1 
172 94 87 1 
173 94 104 1 
174 95 89 2 
175 95 134 1 
176 96 106 2 
177 96 89 1 
178 96 133 1 
179 97 91 1 
180 97 130 1 
181 97 131 1 
182 97 132 1 
183 98 91 1 
184 98 127 1 
185 98 128 1 
186 98 129 1 
187 99 91 1 
188 99 124 1 
189 99 125 1 
190 99 126 1 
191 100 92 2 
192 100 123 1 
193 101 107 2 
194 101 122 1 
195 102 94 1 
196 102 119 1 
197 102 120 1 
198 102 121 1 
199 103 94 1 
200 103 116 1 
201 103 117 1 
202 103 118 1 
203 105 95 1 
204 105 112 1 
205 106 111 1 
206 107 100 1 
207 107 110 1 
208 108 105 2 
209 108 106 1 
210 108 109 1 
211 113 104 1 
212 114 104 1 
213 115 104 1 
@<TRIPOS>SUBSTRUCTURE
1 NIL_1 1 RESIDUE 1 A NIL 1
