@<TRIPOS>MOLECULE
NIL
205 214 1 0 0
POLYMER
CHARGES


@<TRIPOS>ATOM
1 C_2824 113.447 117.772 1.19848 C.3 1 NIL_1    0.000
2 O 113.213 116.836 2.271 O.3 1 NIL_1    0.000
3 C_2827 113.808 119.149 1.805 C.3 1 NIL_1    0.000
4 C_3036 112.817 115.518 1.834 C.3 1 NIL_1    0.000
5 N 114.222 120.152 0.791 N.am 1 NIL_1    0.000
6 C_2860 115.669 120.480 0.868 C.3 1 NIL_1    0.000
7 C_2862 113.383 120.998 0.115 C.2 1 NIL_1    0.000
8 C_2851 116.661 119.499 0.237 C.2 1 NIL_1    0.000
9 O 113.791 121.611 -0.856 O.2 1 NIL_1    0.000
10 C_2863 111.948 121.218 0.611 C.3 1 NIL_1    0.000
11 N 117.868 119.990 -0.161 N.am 1 NIL_1    0.000
12 O 116.430 118.310 0.159 O.2 1 NIL_1    0.000
13 N 111.277 122.376 -0.041 N.am 1 NIL_1    0.000
14 C_2880 111.045 119.980 0.400 C.3 1 NIL_1    0.000
15 C_2853 118.211 121.411 -0.386 C.3 1 NIL_1    0.000
16 C_2870 119.059 119.156 -0.403 C.3 1 NIL_1    0.000
17 C_2865 111.267 123.598 0.549 C.2 1 NIL_1    0.000
18 C_2882 110.066 121.867 -0.702 C.3 1 NIL_1    0.000
19 C_2881 109.687 120.550 -0.027 C.3 1 NIL_1    0.000
20 C_2868 119.665 121.450 -0.896 C.3 1 NIL_1    0.000
21 C_2852 117.288 122.121 -1.384 C.2 1 NIL_1    0.000
22 C_2869 120.265 120.119 -0.435 C.3 1 NIL_1    0.000
23 C_2866 112.397 124.548 0.176 C.3 1 NIL_1    0.000
24 O 110.349 123.958 1.261 O.2 1 NIL_1    0.000
25 N 108.821 119.694 -0.833 N.am 1 NIL_1    0.000
26 C_2845 108.758 120.785 1.145 C.2 1 NIL_1    0.000
27 N 117.166 123.482 -1.345 N.am 1 NIL_1    0.000
28 O 116.685 121.471 -2.220 O.2 1 NIL_1    0.000
29 N 121.452 119.701 -1.182 N.am 1 NIL_1    0.000
30 C_2849 120.898 120.296 0.931 C.2 1 NIL_1    0.000
31 N 112.341 125.185 -1.173 N.am 1 NIL_1    0.000
32 C_2843 107.593 119.529 -0.305 C.2 1 NIL_1    0.000
33 C_2883 109.363 118.991 -2.008 C.3 1 NIL_1    0.000
34 O 109.014 121.416 2.153 O.2 1 NIL_1    0.000
35 N 107.573 120.181 0.887 N.am 1 NIL_1    0.000
36 C_2825 117.854 124.358 -0.362 C.3 1 NIL_1    0.000
37 C_2855 116.251 124.174 -2.297 C.3 1 NIL_1    0.000
38 C_2847 122.585 119.767 -0.453 C.2 1 NIL_1    0.000
39 C_2899 121.332 119.341 -2.608 C.3 1 NIL_1    0.000
40 O 120.316 120.586 1.958 O.2 1 NIL_1    0.000
41 N 122.234 120.099 0.813 N.am 1 NIL_1    0.000
42 C_2826 111.016 125.162 -1.844 C.3 1 NIL_1    0.000
43 C_2857 113.373 125.899 -1.717 C.2 1 NIL_1    0.000
44 O 106.697 118.890 -0.822 O.2 1 NIL_1    0.000
45 C_2884 109.545 117.513 -1.728 C.2 1 NIL_1    0.000
46 C_2802 106.423 120.256 1.815 C.3 1 NIL_1    0.000
47 C_2820 119.173 124.939 -0.907 C.3 1 NIL_1    0.000
48 C_2854 116.465 125.674 -2.482 C.2 1 NIL_1    0.000
49 O 123.713 119.579 -0.867 O.2 1 NIL_1    0.000
50 C_2900 122.141 118.115 -2.980 C.2 1 NIL_1    0.000
51 C_2831 123.197 120.349 1.904 C.3 1 NIL_1    0.000
52 C_2822 110.074 126.258 -1.311 C.3 1 NIL_1    0.000
53 O 113.303 126.332 -2.854 O.2 1 NIL_1    0.000
54 C_2858 114.599 126.204 -0.853 C.3 1 NIL_1    0.000
55 O 109.085 116.755 -2.752 O.3 1 NIL_1    0.000
56 O 109.834 117.093 -0.622 O.2 1 NIL_1    0.000
57 C_2803 105.309 119.236 1.646 C.2 1 NIL_1    0.000
58 O 120.133 124.991 0.168 O.3 1 NIL_1    0.000
59 N 115.780 126.529 -1.677 N.am 1 NIL_1    0.000
60 O 117.269 126.089 -3.295 O.2 1 NIL_1    0.000
61 O 121.836 117.053 -2.190 O.3 1 NIL_1    0.000
62 O 123.068 118.164 -3.764 O.2 1 NIL_1    0.000
63 C_2830 124.305 119.326 2.111 C.3 1 NIL_1    0.000
64 O 108.779 126.081 -1.921 O.3 1 NIL_1    0.000
65 C_2877 114.332 127.419 0.064 C.3 1 NIL_1    0.000
66 C_3057 108.815 115.325 -2.637 C.3 1 NIL_1    0.000
67 C_2804 104.130 119.593 1.124 C.2 1 NIL_1    0.000
68 C_2813 105.497 117.960 2.003 C.2 1 NIL_1    0.000
69 C_3038 121.414 125.542 -0.200 C.3 1 NIL_1    0.000
70 C_2879 116.124 127.948 -1.548 C.3 1 NIL_1    0.000
71 C_3065 122.576 115.793 -2.188 C.3 1 NIL_1    0.000
72 C_3047 125.446 119.642 3.035 C.3 1 NIL_1    0.000
73 C_3049 125.682 119.563 1.558 C.3 1 NIL_1    0.000
74 C_3040 107.783 127.044 -1.520 C.3 1 NIL_1    0.000
75 C_2878 115.199 128.575 -0.486 C.3 1 NIL_1    0.000
76 C_3059 108.374 114.869 -4.046 C.3 1 NIL_1    0.000
77 C_3061 107.657 115.093 -1.633 C.3 1 NIL_1    0.000
78 C_3063 110.086 114.537 -2.229 C.3 1 NIL_1    0.000
79 C_2810 103.156 118.693 0.966 C.2 1 NIL_1    0.000
80 C_2812 104.528 117.055 1.836 C.2 1 NIL_1    0.000
81 C_3067 121.876 114.903 -1.135 C.3 1 NIL_1    0.000
82 C_3069 124.048 116.025 -1.761 C.3 1 NIL_1    0.000
83 C_3071 122.493 115.108 -3.574 C.3 1 NIL_1    0.000
84 N 114.458 129.751 -0.957 N.am 1 NIL_1    0.000
85 C_2841 116.002 129.230 0.617 C.2 1 NIL_1    0.000
86 C_2811 103.357 117.422 1.319 C.2 1 NIL_1    0.000
87 C_2839 114.758 130.877 -0.265 C.2 1 NIL_1    0.000
88 C_2915 113.574 129.587 -2.134 C.3 1 NIL_1    0.000
89 O 116.813 128.675 1.335 O.2 1 NIL_1    0.000
90 N 115.681 130.543 0.674 N.am 1 NIL_1    0.000
91 O 114.293 131.983 -0.456 O.2 1 NIL_1    0.000
92 C_2916 112.819 130.821 -2.573 C.2 1 NIL_1    0.000
93 C_2829 116.289 131.456 1.668 C.3 1 NIL_1    0.000
94 O 111.701 131.002 -1.831 O.3 1 NIL_1    0.000
95 O 113.231 131.571 -3.437 O.2 1 NIL_1    0.000
96 C_2828 115.988 132.942 1.598 C.2 1 NIL_1    0.000
97 C_3075 110.785 132.126 -1.985 C.3 1 NIL_1    0.000
98 C_2805 116.682 133.740 0.780 C.2 1 NIL_1    0.000
99 C_2809 115.017 133.479 2.344 C.2 1 NIL_1    0.000
100 C_3077 111.497 133.469 -1.682 C.3 1 NIL_1    0.000
101 C_3079 109.680 131.882 -0.935 C.3 1 NIL_1    0.000
102 C_3081 110.161 132.128 -3.402 C.3 1 NIL_1    0.000
103 C_2806 116.418 135.046 0.708 C.2 1 NIL_1    0.000
104 C_2808 114.746 134.782 2.269 C.2 1 NIL_1    0.000
105 C_2807 115.441 135.582 1.456 C.2 1 NIL_1    0.000
106 O 115.096 136.910 1.432 O.3 1 NIL_1    0.000
107 C_3044 116.007 137.880 0.860 C.3 1 NIL_1    0.000
108 H_30441 116.974 137.817 1.367 H 1 NIL_1    0.000
109 H_30442 115.586 138.878 1.005 H 1 NIL_1    0.000
110 H_30443 116.127 137.693 -0.210 H 1 NIL_1    0.000
111 H_2808 113.946 135.196 2.880 H 1 NIL_1    0.000
112 H_2806 117.007 135.654 0.027 H 1 NIL_1    0.000
113 H_30811 109.751 131.144 -3.644 H 1 NIL_1    0.000
114 H_30812 110.895 132.391 -4.166 H 1 NIL_1    0.000
115 H_30813 109.352 132.859 -3.462 H 1 NIL_1    0.000
116 H_30791 109.178 130.930 -1.122 H 1 NIL_1    0.000
117 H_30792 108.931 132.677 -0.962 H 1 NIL_1    0.000
118 H_30793 110.109 131.848 0.069 H 1 NIL_1    0.000
119 H_30771 111.984 133.440 -0.705 H 1 NIL_1    0.000
120 H_30772 110.775 134.289 -1.674 H 1 NIL_1    0.000
121 H_30773 112.250 133.709 -2.434 H 1 NIL_1    0.000
122 H_2809 114.437 132.851 3.018 H 1 NIL_1    0.000
123 H_2805 117.469 133.322 0.156 H 1 NIL_1    0.000
124 H_28291 117.374 131.334 1.599 H 1 NIL_1    0.000
125 H_28292 115.997 131.089 2.656 H 1 NIL_1    0.000
126 H_29151 112.831 128.812 -1.927 H 1 NIL_1    0.000
127 H_29152 114.169 129.278 -2.995 H 1 NIL_1    0.000
128 H_2811 102.568 116.689 1.176 H 1 NIL_1    0.000
129 H_30711 123.072 115.649 -4.325 H 1 NIL_1    0.000
130 H_30712 121.457 115.052 -3.916 H 1 NIL_1    0.000
131 H_30713 122.891 114.092 -3.525 H 1 NIL_1    0.000
132 H_30691 124.618 116.529 -2.543 H 1 NIL_1    0.000
133 H_30692 124.545 115.073 -1.560 H 1 NIL_1    0.000
134 H_30693 124.097 116.633 -0.855 H 1 NIL_1    0.000
135 H_30671 121.932 115.359 -0.143 H 1 NIL_1    0.000
136 H_30672 122.346 113.918 -1.081 H 1 NIL_1    0.000
137 H_30673 120.822 114.763 -1.386 H 1 NIL_1    0.000
138 H_2812 104.694 116.019 2.122 H 1 NIL_1    0.000
139 H_2810 102.204 118.998 0.545 H 1 NIL_1    0.000
140 H_30631 110.932 114.812 -2.863 H 1 NIL_1    0.000
141 H_30632 109.919 113.463 -2.334 H 1 NIL_1    0.000
142 H_30633 110.365 114.717 -1.190 H 1 NIL_1    0.000
143 H_30611 106.820 115.763 -1.846 H 1 NIL_1    0.000
144 H_30612 107.976 115.269 -0.604 H 1 NIL_1    0.000
145 H_30613 107.293 114.065 -1.692 H 1 NIL_1    0.000
146 H_30591 109.190 114.989 -4.763 H 1 NIL_1    0.000
147 H_30592 107.523 115.459 -4.398 H 1 NIL_1    0.000
148 H_30593 108.081 113.816 -4.039 H 1 NIL_1    0.000
149 H_30401 108.118 128.049 -1.794 H 1 NIL_1    0.000
150 H_30402 107.635 126.981 -0.438 H 1 NIL_1    0.000
151 H_30403 106.845 126.816 -2.035 H 1 NIL_1    0.000
152 H_30491 125.870 120.490 1.026 H 1 NIL_1    0.000
153 H_30492 126.229 118.706 1.177 H 1 NIL_1    0.000
154 H_30471 125.838 118.841 3.653 H 1 NIL_1    0.000
155 H_30472 125.475 120.625 3.497 H 1 NIL_1    0.000
156 H_28791 116.016 128.438 -2.518 H 1 NIL_1    0.000
157 H_28792 117.170 128.026 -1.240 H 1 NIL_1    0.000
158 H_30381 121.290 126.598 -0.455 H 1 NIL_1    0.000
159 H_30382 121.815 124.995 -1.059 H 1 NIL_1    0.000
160 H_30383 122.096 125.444 0.648 H 1 NIL_1    0.000
161 H_2813 106.452 117.646 2.417 H 1 NIL_1    0.000
162 H_2804 103.951 120.623 0.821 H 1 NIL_1    0.000
163 H_28771 113.274 127.689 0.102 H 1 NIL_1    0.000
164 H_28772 114.636 127.155 1.080 H 1 NIL_1    0.000
165 H_2830 123.945 118.300 2.117 H 1 NIL_1    0.000
166 H_2858 114.830 125.331 -0.239 H 1 NIL_1    0.000
167 H_28221 109.965 126.179 -0.226 H 1 NIL_1    0.000
168 H_28222 110.458 127.250 -1.568 H 1 NIL_1    0.000
169 H_28311 122.666 120.385 2.858 H 1 NIL_1    0.000
170 H_28312 123.661 121.325 1.734 H 1 NIL_1    0.000
171 H_28201 119.570 124.298 -1.698 H 1 NIL_1    0.000
172 H_28202 119.012 125.946 -1.302 H 1 NIL_1    0.000
173 H_28021 106.002 121.263 1.732 H 1 NIL_1    0.000
174 H_28022 106.808 120.158 2.833 H 1 NIL_1    0.000
175 H_28261 110.536 124.193 -1.731 H 1 NIL_1    0.000
176 H_28262 111.145 125.307 -2.920 H 1 NIL_1    0.000
177 H_28991 121.690 120.176 -3.217 H 1 NIL_1    0.000
178 H_28992 120.292 119.137 -2.869 H 1 NIL_1    0.000
179 H_28551 115.221 123.985 -1.985 H 1 NIL_1    0.000
180 H_28552 116.381 123.736 -3.291 H 1 NIL_1    0.000
181 H_28251 118.054 123.817 0.560 H 1 NIL_1    0.000
182 H_28252 117.198 125.175 -0.063 H 1 NIL_1    0.000
183 H_28831 110.332 119.402 -2.305 H 1 NIL_1    0.000
184 H_28832 108.667 119.107 -2.845 H 1 NIL_1    0.000
185 H_28661 112.406 125.338 0.931 H 1 NIL_1    0.000
186 H_28662 113.320 123.968 0.257 H 1 NIL_1    0.000
187 H_28681 119.676 121.505 -1.989 H 1 NIL_1    0.000
188 H_28682 120.219 122.306 -0.505 H 1 NIL_1    0.000
189 H_28821 110.311 121.689 -1.752 H 1 NIL_1    0.000
190 H_28822 109.243 122.586 -0.650 H 1 NIL_1    0.000
191 H_28701 118.931 118.650 -1.363 H 1 NIL_1    0.000
192 H_28702 119.175 118.409 0.387 H 1 NIL_1    0.000
193 H_2853 118.150 121.889 0.591 H 1 NIL_1    0.000
194 H_28801 111.467 119.367 -0.398 H 1 NIL_1    0.000
195 H_28802 110.959 119.371 1.304 H 1 NIL_1    0.000
196 H_2863 112.008 121.423 1.684 H 1 NIL_1    0.000
197 H_28601 115.953 120.557 1.922 H 1 NIL_1    0.000
198 H_28602 115.814 121.475 0.452 H 1 NIL_1    0.000
199 H_30361 113.572 115.121 1.150 H 1 NIL_1    0.000
200 H_30362 111.852 115.585 1.324 H 1 NIL_1    0.000
201 H_30363 112.728 114.862 2.705 H 1 NIL_1    0.000
202 H_28271 112.963 119.529 2.382 H 1 NIL_1    0.000
203 H_28272 114.630 118.985 2.509 H 1 NIL_1    0.000
204 H_28241 112.545 117.825 0.590 H 1 NIL_1    0.000
205 H_28242 114.259 117.386 0.579 H 1 NIL_1    0.000
@<TRIPOS>BOND
1 1 204 1 
2 1 205 1 
3 2 1 1 
4 3 1 1 
5 3 202 1 
6 3 203 1 
7 4 2 1 
8 4 199 1 
9 4 200 1 
10 4 201 1 
11 5 3 1 
12 5 6 1 
13 5 7 1 
14 6 8 1 
15 6 197 1 
16 6 198 1 
17 7 9 2 
18 8 11 1 
19 8 12 2 
20 10 13 1 
21 10 14 1 
22 10 7 1 
23 10 196 1 
24 11 16 1 
25 14 194 1 
26 14 195 1 
27 15 11 1 
28 15 20 1 
29 15 193 1 
30 16 191 1 
31 16 192 1 
32 17 13 1 
33 18 19 1 
34 18 13 1 
35 18 189 1 
36 18 190 1 
37 19 25 1 
38 19 14 1 
39 20 187 1 
40 20 188 1 
41 21 28 2 
42 21 15 1 
43 22 29 1 
44 22 20 1 
45 22 16 1 
46 23 17 1 
47 23 185 1 
48 23 186 1 
49 24 17 2 
50 26 35 1 
51 26 19 1 
52 27 36 1 
53 27 37 1 
54 27 21 1 
55 30 41 1 
56 30 22 1 
57 31 42 1 
58 31 23 1 
59 31 43 1 
60 32 25 1 
61 32 35 1 
62 33 25 1 
63 33 183 1 
64 33 184 1 
65 34 26 2 
66 36 47 1 
67 36 181 1 
68 36 182 1 
69 37 48 1 
70 37 179 1 
71 37 180 1 
72 38 29 1 
73 38 41 1 
74 39 29 1 
75 39 177 1 
76 39 178 1 
77 40 30 2 
78 41 51 1 
79 42 52 1 
80 42 175 1 
81 42 176 1 
82 44 32 2 
83 45 33 1 
84 46 35 1 
85 46 173 1 
86 46 174 1 
87 47 171 1 
88 47 172 1 
89 48 60 2 
90 49 38 2 
91 50 39 1 
92 53 43 2 
93 54 65 1 
94 54 43 1 
95 55 45 1 
96 56 45 2 
97 57 46 1 
98 57 68 1 
99 58 47 1 
100 59 54 1 
101 59 48 1 
102 59 70 1 
103 61 50 1 
104 62 50 2 
105 63 51 1 
106 64 52 1 
107 66 55 1 
108 67 57 2 
109 69 58 1 
110 71 61 1 
111 72 63 1 
112 73 72 1 
113 73 63 1 
114 74 64 1 
115 75 84 1 
116 75 65 1 
117 75 70 1 
118 76 66 1 
119 77 66 1 
120 78 66 1 
121 79 67 1 
122 80 86 1 
123 80 68 2 
124 81 71 1 
125 82 71 1 
126 83 71 1 
127 85 90 1 
128 85 75 1 
129 86 79 2 
130 87 84 1 
131 87 90 1 
132 88 84 1 
133 89 85 2 
134 91 87 2 
135 92 88 1 
136 93 90 1 
137 94 92 1 
138 95 92 2 
139 96 98 1 
140 96 93 1 
141 97 94 1 
142 99 104 1 
143 99 96 2 
144 100 97 1 
145 101 97 1 
146 102 97 1 
147 103 98 2 
148 104 105 2 
149 105 103 1 
150 106 105 1 
151 107 106 1 
152 108 107 1 
153 109 107 1 
154 110 107 1 
155 111 104 1 
156 112 103 1 
157 113 102 1 
158 114 102 1 
159 115 102 1 
160 116 101 1 
161 117 101 1 
162 118 101 1 
163 119 100 1 
164 120 100 1 
165 121 100 1 
166 122 99 1 
167 123 98 1 
168 124 93 1 
169 125 93 1 
170 126 88 1 
171 127 88 1 
172 128 86 1 
173 129 83 1 
174 130 83 1 
175 131 83 1 
176 132 82 1 
177 133 82 1 
178 134 82 1 
179 135 81 1 
180 136 81 1 
181 137 81 1 
182 138 80 1 
183 139 79 1 
184 140 78 1 
185 141 78 1 
186 142 78 1 
187 143 77 1 
188 144 77 1 
189 145 77 1 
190 146 76 1 
191 147 76 1 
192 148 76 1 
193 149 74 1 
194 150 74 1 
195 151 74 1 
196 152 73 1 
197 153 73 1 
198 154 72 1 
199 155 72 1 
200 156 70 1 
201 157 70 1 
202 158 69 1 
203 159 69 1 
204 160 69 1 
205 161 68 1 
206 162 67 1 
207 163 65 1 
208 164 65 1 
209 165 63 1 
210 166 54 1 
211 167 52 1 
212 168 52 1 
213 169 51 1 
214 170 51 1 
@<TRIPOS>SUBSTRUCTURE
1 NIL_1 1 RESIDUE 1 A NIL 1
