@<TRIPOS>MOLECULE
NIL
162 171 3 0 0
POLYMER
CHARGES


@<TRIPOS>ATOM
1 C_1838 146.432 119.813 0.689318 c 1 NIL_1    0.000
2 O 145.708 119.121 1.384 o 1 NIL_1    0.000
3 C_1837 145.838 120.998 -0.082 c3 1 NIL_1    0.000
4 C_1818 146.102 122.327 0.676 c3 1 NIL_1    0.000
5 N 144.364 120.952 -0.322 n 1 NIL_1    0.000
6 C_1817 144.864 123.182 0.395 c3 1 NIL_1    0.000
7 C_1816 143.748 122.154 0.266 c3 1 NIL_1    0.000
8 C_1854 144.999 123.982 -0.878 c 1 NIL_1    0.000
9 NH 144.608 124.264 1.330 n 1 NIL_1    0.000
10 N 144.807 125.288 -0.582 n 1 NIL_1    0.000
11 O 145.233 123.538 -1.986 o 1 NIL_1    0.000
12 C_1856 144.576 125.474 0.744 c 1 NIL_1    0.000
13 O 144.375 126.522 1.326 o 1 NIL_1    0.000
14 H_18161 143.357 121.890 1.253 h1 1 NIL_1    0.000
15 H_18162 142.941 122.550 -0.355 h1 1 NIL_1    0.000
16 H_18181 146.180 122.137 1.750 hc 1 NIL_1    0.000
17 H_18182 147.005 122.846 0.349 hc 1 NIL_1    0.000
18 H_1837 146.314 121.041 -1.062 h1 1 NIL_1    0.000
19 HH 144.464 124.110 2.317 hn 1 NIL_1    0.000
20 C_1840 144.219 118.778 -1.554 c3 2 NIL_2    0.000
21 N 143.465 117.557 -1.116 n 2 NIL_2    0.000
22 C_1841 143.674 120.151 -1.184 c 2 NIL_2    0.000
23 C_1843 144.021 116.325 -1.371 c 2 NIL_2    0.000
24 C_1872 142.131 117.809 -0.517 c3 2 NIL_2    0.000
25 O 142.624 120.532 -1.667 o 2 NIL_2    0.000
26 O 145.100 116.293 -1.935 o 2 NIL_2    0.000
27 C_1842 143.338 114.959 -1.135 c3 2 NIL_2    0.000
28 C_1879 141.000 117.749 -1.564 c3 2 NIL_2    0.000
29 C_1827 142.075 114.778 -0.270 c3 2 NIL_2    0.000
30 N 144.223 113.878 -0.637 n 2 NIL_2    0.000
31 O 139.739 117.581 -0.881 os 2 NIL_2    0.000
32 C_1826 141.894 113.257 -0.293 c3 2 NIL_2    0.000
33 C_1825 143.314 112.712 -0.546 c3 2 NIL_2    0.000
34 C_1844 145.056 114.128 0.408 c 2 NIL_2    0.000
35 C_1881 138.618 117.320 -1.752 c3 2 NIL_2    0.000
36 C_1846 140.886 112.876 -1.354 c 2 NIL_2    0.000
37 NH 141.219 112.722 0.877 n 2 NIL_2    0.000
38 O 144.656 114.064 1.556 o 2 NIL_2    0.000
39 C_1835 146.478 114.542 0.050 c3 2 NIL_2    0.000
40 N 139.810 112.338 -0.734 n 2 NIL_2    0.000
41 O 140.993 113.070 -2.550 o 2 NIL_2    0.000
42 C_1848 139.999 112.231 0.605 c 2 NIL_2    0.000
43 N 147.554 114.247 1.029 n 2 NIL_2    0.000
44 C_1866 138.528 112.098 -1.419 c3 2 NIL_2    0.000
45 O 139.222 111.791 1.428 o 2 NIL_2    0.000
46 C_1833 148.680 115.013 1.151 c 2 NIL_2    0.000
47 C_1870 147.431 112.939 1.732 c3 2 NIL_2    0.000
48 C_1867 137.758 110.850 -1.042 c2 2 NIL_2    0.000
49 O 149.415 114.870 2.111 o 2 NIL_2    0.000
50 C_1832 149.043 116.008 0.034 c3 2 NIL_2    0.000
51 C_1873 147.310 111.739 0.768 c3 2 NIL_2    0.000
52 C_2172 136.613 110.937 -0.358 c2 2 NIL_2    0.000
53 C_2180 138.194 109.644 -1.415 c2 2 NIL_2    0.000
54 C_1815 149.729 115.276 -1.141 c3 2 NIL_2    0.000
55 N 150.035 117.001 0.495 n 2 NIL_2    0.000
56 O 147.146 110.527 1.534 os 2 NIL_2    0.000
57 C_2174 135.912 109.842 -0.069 c2 2 NIL_2    0.000
58 C_2178 137.496 108.546 -1.126 c2 2 NIL_2    0.000
59 C_1814 151.209 115.282 -0.738 c3 2 NIL_2    0.000
60 C_1813 151.374 116.597 0.040 c3 2 NIL_2    0.000
61 C_1830 149.814 118.090 1.277 c 2 NIL_2    0.000
62 C_1875 146.916 109.348 0.730 c3 2 NIL_2    0.000
63 C_2176 136.337 108.635 -0.453 c2 2 NIL_2    0.000
64 C_1850 152.184 115.138 -1.882 c 2 NIL_2    0.000
65 NH 151.578 114.109 0.032 n 2 NIL_2    0.000
66 O 150.749 118.700 1.761 o 2 NIL_2    0.000
67 C_1829 148.377 118.543 1.528 c3 2 NIL_2    0.000
68 O 135.543 107.560 -0.139 os 2 NIL_2    0.000
69 N 152.948 114.040 -1.655 n 2 NIL_2    0.000
70 O 152.276 115.879 -2.840 o 2 NIL_2    0.000
71 C_1852 152.563 113.390 -0.524 c 2 NIL_2    0.000
72 N 147.779 119.560 0.612 n 2 NIL_2    0.000
73 C_2273 135.967 106.227 -0.509 c3 2 NIL_2    0.000
74 C_1864 154.055 113.632 -2.551 c3 2 NIL_2    0.000
75 O 152.993 112.349 -0.069 o 2 NIL_2    0.000
76 C_1871 148.765 120.443 -0.074 c3 2 NIL_2    0.000
77 C_1865 155.120 112.737 -1.941 c2 2 NIL_2    0.000
78 C_1876 148.936 120.263 -1.598 c3 2 NIL_2    0.000
79 C_2196 155.932 113.199 -0.982 c2 2 NIL_2    0.000
80 C_2188 155.237 111.461 -2.322 c2 2 NIL_2    0.000
81 O 149.104 118.880 -1.979 os 2 NIL_2    0.000
82 C_2194 156.830 112.398 -0.406 c2 2 NIL_2    0.000
83 C_2190 156.135 110.658 -1.749 c2 2 NIL_2    0.000
84 C_1878 147.919 118.254 -2.518 c3 2 NIL_2    0.000
85 C_2192 156.931 111.119 -0.783 c2 2 NIL_2    0.000
86 O 157.832 110.282 -0.196 os 2 NIL_2    0.000
87 C_2269 157.486 109.896 1.155 c3 2 NIL_2    0.000
88 H_22691 157.412 110.788 1.783 h1 2 NIL_2    0.000
89 H_22692 158.264 109.237 1.547 h1 2 NIL_2    0.000
90 H_22693 156.528 109.367 1.148 h1 2 NIL_2    0.000
91 H_18781 147.511 118.877 -3.319 h1 2 NIL_2    0.000
92 H_18782 147.187 118.131 -1.721 h1 2 NIL_2    0.000
93 H_18783 148.179 117.275 -2.923 h1 2 NIL_2    0.000
94 H_2190 156.208 109.619 -2.062 ha 2 NIL_2    0.000
95 H_2194 157.474 112.789 0.379 ha 2 NIL_2    0.000
96 H_2188 154.586 111.061 -3.097 ha 2 NIL_2    0.000
97 H_2196 155.851 114.233 -0.652 ha 2 NIL_2    0.000
98 H_18761 148.094 120.700 -2.138 h1 2 NIL_2    0.000
99 H_18762 149.837 120.800 -1.901 h1 2 NIL_2    0.000
100 H_18711 149.753 120.351 0.372 h1 2 NIL_2    0.000
101 H_18712 148.497 121.481 0.099 h1 2 NIL_2    0.000
102 H_18641 154.543 114.540 -2.919 h1 2 NIL_2    0.000
103 H_18642 153.609 113.137 -3.418 h1 2 NIL_2    0.000
104 H_22731 135.189 105.518 -0.215 h1 2 NIL_2    0.000
105 H_22732 136.897 105.987 0.013 h1 2 NIL_2    0.000
106 H_22733 136.114 106.173 -1.592 h1 2 NIL_2    0.000
107 H_18291 147.743 117.655 1.536 h1 2 NIL_2    0.000
108 H_18292 148.365 118.962 2.536 h1 2 NIL_2    0.000
109 H_18751 146.829 108.476 1.384 h1 2 NIL_2    0.000
110 H_18752 147.754 109.209 0.043 h1 2 NIL_2    0.000
111 H_18753 145.989 109.472 0.162 h1 2 NIL_2    0.000
112 H_18131 152.048 116.468 0.891 h1 2 NIL_2    0.000
113 H_18132 151.762 117.382 -0.616 h1 2 NIL_2    0.000
114 H_2178 137.887 107.590 -1.461 ha 2 NIL_2    0.000
115 H_2174 134.977 109.939 0.479 ha 2 NIL_2    0.000
116 H_18151 149.337 114.270 -1.318 hc 2 NIL_2    0.000
117 H_18152 149.605 115.855 -2.057 hc 2 NIL_2    0.000
118 H_2180 139.124 109.553 -1.972 ha 2 NIL_2    0.000
119 H_2172 136.239 111.908 -0.040 ha 2 NIL_2    0.000
120 H_18731 146.437 111.851 0.121 h1 2 NIL_2    0.000
121 H_18732 148.211 111.656 0.154 h1 2 NIL_2    0.000
122 H_1832 148.156 116.528 -0.322 h1 2 NIL_2    0.000
123 H_18701 146.579 112.958 2.412 h1 2 NIL_2    0.000
124 H_18702 148.316 112.768 2.350 h1 2 NIL_2    0.000
125 H_18661 138.712 112.061 -2.495 h1 2 NIL_2    0.000
126 H_18662 137.899 112.975 -1.237 h1 2 NIL_2    0.000
127 H_18351 146.735 114.091 -0.913 h1 2 NIL_2    0.000
128 H_18352 146.419 115.623 -0.063 h1 2 NIL_2    0.000
129 H_18811 138.521 118.141 -2.466 h1 2 NIL_2    0.000
130 H_18812 137.707 117.242 -1.153 h1 2 NIL_2    0.000
131 H_18813 138.783 116.379 -2.287 h1 2 NIL_2    0.000
132 H_18251 143.621 112.048 0.268 h1 2 NIL_2    0.000
133 H_18252 143.353 112.157 -1.486 h1 2 NIL_2    0.000
134 H_18271 142.257 115.110 0.755 hc 2 NIL_2    0.000
135 H_18272 141.189 115.269 -0.668 hc 2 NIL_2    0.000
136 H_18791 140.972 118.668 -2.154 h1 2 NIL_2    0.000
137 H_18792 141.150 116.896 -2.233 h1 2 NIL_2    0.000
138 H_1842 143.048 114.679 -2.153 h1 2 NIL_2    0.000
139 H_18721 142.094 118.777 -0.019 h1 2 NIL_2    0.000
140 H_18722 141.945 117.113 0.294 h1 2 NIL_2    0.000
141 H_18401 144.273 118.767 -2.646 h1 2 NIL_2    0.000
142 H_18402 145.237 118.701 -1.186 h1 2 NIL_2    0.000
143 HH 151.094 113.839 0.874 hn 2 NIL_2    0.000
144 HH 141.612 112.770 1.805 hn 2 NIL_2    0.000
145 C_2204 143.146 128.077 -1.255 c2 3 NIL_3    0.000
146 C_1869 144.439 127.749 -1.301 c2 3 NIL_3    0.000
147 C_2206 142.774 129.330 -0.986 c2 3 NIL_3    0.000
148 C_1868 144.866 126.331 -1.625 c3 3 NIL_3    0.000
149 C_2212 145.352 128.696 -1.074 c2 3 NIL_3    0.000
150 C_2208 143.685 130.281 -0.759 c2 3 NIL_3    0.000
151 C_2210 144.984 129.950 -0.806 c2 3 NIL_3    0.000
152 O 143.226 131.549 -0.496 os 3 NIL_3    0.000
153 C_2271 144.161 132.589 -0.118 c3 3 NIL_3    0.000
154 H_22711 144.687 132.295 0.794 h1 3 NIL_3    0.000
155 H_22712 143.604 133.511 0.066 h1 3 NIL_3    0.000
156 H_22713 144.876 132.757 -0.929 h1 3 NIL_3    0.000
157 H_2210 145.765 130.684 -0.635 ha 3 NIL_3    0.000
158 H_2212 146.411 128.452 -1.113 ha 3 NIL_3    0.000
159 H_18681 144.243 125.985 -2.454 h1 3 NIL_3    0.000
160 H_18682 145.894 126.354 -1.998 h1 3 NIL_3    0.000
161 H_2206 141.714 129.575 -0.957 ha 3 NIL_3    0.000
162 H_2204 142.386 127.321 -1.440 ha 3 NIL_3    0.000
@<TRIPOS>BOND
1 1 72 1 
2 1 3 1 
3 2 1 2 
4 3 4 1 
5 4 6 1 
6 5 7 1 
7 5 22 1 
8 5 3 1 
9 6 8 1 
10 6 9 1 
11 7 6 1 
12 7 14 1 
13 7 15 1 
14 8 11 2 
15 9 12 1 
16 10 8 1 
17 10 12 1 
18 10 148 1 
19 13 12 2 
20 16 4 1 
21 17 4 1 
22 18 3 1 
23 19 9 1 
24 20 21 1 
25 21 24 1 
26 22 20 1 
27 23 21 1 
28 23 27 1 
29 25 22 2 
30 26 23 2 
31 27 29 1 
32 28 24 1 
33 30 33 1 
34 30 27 1 
35 30 34 1 
36 31 28 1 
37 32 33 1 
38 32 29 1 
39 32 36 1 
40 32 37 1 
41 34 39 1 
42 35 31 1 
43 36 41 2 
44 37 42 1 
45 38 34 2 
46 39 43 1 
47 40 36 1 
48 40 44 1 
49 42 40 1 
50 42 45 2 
51 43 47 1 
52 46 43 1 
53 47 51 1 
54 48 44 1 
55 48 52 2 
56 48 53 1 
57 49 46 2 
58 50 54 1 
59 50 55 1 
60 50 46 1 
61 50 122 1 
62 53 58 2 
63 54 59 1 
64 54 116 1 
65 54 117 1 
66 55 60 1 
67 55 61 1 
68 56 51 1 
69 57 52 1 
70 58 63 1 
71 59 60 1 
72 59 64 1 
73 59 65 1 
74 60 112 1 
75 60 113 1 
76 61 67 1 
77 62 56 1 
78 63 57 2 
79 64 70 2 
80 65 71 1 
81 66 61 2 
82 67 72 1 
83 68 63 1 
84 69 64 1 
85 69 74 1 
86 71 69 1 
87 71 75 2 
88 72 76 1 
89 73 68 1 
90 73 104 1 
91 73 105 1 
92 73 106 1 
93 74 77 1 
94 76 78 1 
95 77 79 1 
96 80 83 1 
97 80 77 2 
98 80 96 1 
99 81 78 1 
100 82 79 2 
101 83 85 2 
102 83 94 1 
103 84 81 1 
104 85 86 1 
105 85 82 1 
106 87 86 1 
107 88 87 1 
108 89 87 1 
109 90 87 1 
110 91 84 1 
111 92 84 1 
112 93 84 1 
113 95 82 1 
114 97 79 1 
115 98 78 1 
116 99 78 1 
117 100 76 1 
118 101 76 1 
119 102 74 1 
120 103 74 1 
121 107 67 1 
122 108 67 1 
123 109 62 1 
124 110 62 1 
125 111 62 1 
126 114 58 1 
127 115 57 1 
128 118 53 1 
129 119 52 1 
130 120 51 1 
131 121 51 1 
132 123 47 1 
133 124 47 1 
134 125 44 1 
135 126 44 1 
136 127 39 1 
137 128 39 1 
138 129 35 1 
139 130 35 1 
140 131 35 1 
141 132 33 1 
142 133 33 1 
143 134 29 1 
144 135 29 1 
145 136 28 1 
146 137 28 1 
147 138 27 1 
148 139 24 1 
149 140 24 1 
150 141 20 1 
151 142 20 1 
152 143 65 1 
153 144 37 1 
154 145 146 2 
155 145 162 1 
156 146 148 1 
157 147 145 1 
158 147 161 1 
159 149 151 2 
160 149 146 1 
161 150 147 2 
162 151 150 1 
163 152 150 1 
164 153 152 1 
165 154 153 1 
166 155 153 1 
167 156 153 1 
168 157 151 1 
169 158 149 1 
170 159 148 1 
171 160 148 1 
@<TRIPOS>SUBSTRUCTURE
1 NIL_1 1 RESIDUE 1 A NIL 1
2 NIL_2 20 RESIDUE 1 A NIL 1
3 NIL_3 145 RESIDUE 1 A NIL 1
