@<TRIPOS>MOLECULE
NIL
162 171 1 0 0
POLYMER
CHARGES


@<TRIPOS>ATOM
1 C_1878 152.117 107.72 2.35856 c3 1 NIL_1    0.000
2 O 150.839 107.387 2.946 os 1 NIL_1    0.000
3 C_1876 150.293 106.071 2.677 c3 1 NIL_1    0.000
4 C_1871 149.417 106.083 1.402 c3 1 NIL_1    0.000
5 N 150.128 105.937 0.107 n 1 NIL_1    0.000
6 C_1838 150.166 106.859 -0.906 c 1 NIL_1    0.000
7 C_1829 150.625 104.552 -0.111 c3 1 NIL_1    0.000
8 O 150.955 106.715 -1.819 o 1 NIL_1    0.000
9 C_1837 149.189 108.044 -0.977 c3 1 NIL_1    0.000
10 C_1830 152.035 104.250 0.391 c 1 NIL_1    0.000
11 C_1818 149.718 109.274 -0.213 c3 1 NIL_1    0.000
12 N 147.776 107.851 -0.567 n 1 NIL_1    0.000
13 O 152.780 105.147 0.736 o 1 NIL_1    0.000
14 N 152.464 102.955 0.416 n 1 NIL_1    0.000
15 C_1817 148.448 110.065 0.125 c3 1 NIL_1    0.000
16 C_1816 147.360 108.993 0.263 c3 1 NIL_1    0.000
17 C_1841 146.968 106.820 -0.932 c 1 NIL_1    0.000
18 C_1813 153.807 102.560 0.872 c3 1 NIL_1    0.000
19 C_1832 151.745 101.747 -0.064 c3 1 NIL_1    0.000
20 C_1854 148.083 111.067 -0.944 c 1 NIL_1    0.000
21 NH 148.551 110.961 1.264 n 1 NIL_1    0.000
22 O 147.366 105.937 -1.669 o 1 NIL_1    0.000
23 C_1840 145.537 106.839 -0.394 c3 1 NIL_1    0.000
24 C_1814 154.081 101.160 0.304 c3 1 NIL_1    0.000
25 C_1815 152.687 100.543 0.154 c3 1 NIL_1    0.000
26 C_1833 150.409 101.481 0.625 c 1 NIL_1    0.000
27 N 147.991 112.289 -0.368 n 1 NIL_1    0.000
28 O 147.880 110.821 -2.118 o 1 NIL_1    0.000
29 C_1856 148.254 112.237 0.964 c 1 NIL_1    0.000
30 N 144.877 105.520 -0.442 n 1 NIL_1    0.000
31 C_1850 154.836 101.210 -1.007 c 1 NIL_1    0.000
32 NH 155.010 100.358 1.079 n 1 NIL_1    0.000
33 O 150.240 101.829 1.780 o 1 NIL_1    0.000
34 N 149.411 100.856 -0.067 n 1 NIL_1    0.000
35 C_1868 147.577 113.488 -1.125 c3 1 NIL_1    0.000
36 O 148.222 113.147 1.767 o 1 NIL_1    0.000
37 C_1843 145.369 104.469 0.274 c 1 NIL_1    0.000
38 C_1872 143.658 105.501 -1.279 c3 1 NIL_1    0.000
39 N 155.987 100.510 -0.858 n 1 NIL_1    0.000
40 O 154.475 101.777 -2.020 o 1 NIL_1    0.000
41 C_1852 156.096 99.982 0.385 c 1 NIL_1    0.000
42 C_1835 148.021 100.812 0.437 c3 1 NIL_1    0.000
43 C_1870 149.509 100.246 -1.412 c3 1 NIL_1    0.000
44 C_1869 147.969 114.847 -0.579 c2 1 NIL_1    0.000
45 O 146.176 104.650 1.167 o 1 NIL_1    0.000
46 C_1842 144.905 103.061 -0.086 c3 1 NIL_1    0.000
47 C_1879 142.421 105.942 -0.471 c3 1 NIL_1    0.000
48 C_1864 156.990 100.328 -1.927 c3 1 NIL_1    0.000
49 O 156.995 99.289 0.819 o 1 NIL_1    0.000
50 C_1844 147.186 101.991 -0.047 c 1 NIL_1    0.000
51 C_1873 149.777 98.731 -1.359 c3 1 NIL_1    0.000
52 C_2204 149.186 115.348 -0.804 c2 1 NIL_1    0.000
53 C_2212 147.100 115.567 0.136 c2 1 NIL_1    0.000
54 C_1827 143.567 102.705 0.588 c3 1 NIL_1    0.000
55 N 145.864 101.993 0.277 n 1 NIL_1    0.000
56 O 141.243 105.795 -1.290 os 1 NIL_1    0.000
57 C_1865 158.419 100.556 -1.471 c2 1 NIL_1    0.000
58 O 147.676 102.896 -0.699 o 1 NIL_1    0.000
59 O 149.686 98.213 -2.703 os 1 NIL_1    0.000
60 C_2206 149.526 116.546 -0.325 c2 1 NIL_1    0.000
61 C_2210 147.438 116.763 0.619 c2 1 NIL_1    0.000
62 C_1826 143.641 101.181 0.735 c3 1 NIL_1    0.000
63 C_1825 145.137 100.897 0.942 c3 1 NIL_1    0.000
64 C_1881 140.003 106.114 -0.621 c3 1 NIL_1    0.000
65 C_2196 158.800 101.750 -1.011 c2 1 NIL_1    0.000
66 C_2188 159.313 99.563 -1.501 c2 1 NIL_1    0.000
67 C_1875 149.812 96.781 -2.821 c3 1 NIL_1    0.000
68 C_2208 148.658 117.270 0.389 c2 1 NIL_1    0.000
69 C_1846 143.096 100.472 -0.486 c 1 NIL_1    0.000
70 NH 142.754 100.625 1.741 n 1 NIL_1    0.000
71 C_2194 160.049 101.948 -0.585 c2 1 NIL_1    0.000
72 C_2190 160.564 99.758 -1.077 c2 1 NIL_1    0.000
73 O 149.076 118.497 0.845 os 1 NIL_1    0.000
74 N 142.051 99.700 -0.103 n 1 NIL_1    0.000
75 O 143.517 100.570 -1.623 o 1 NIL_1    0.000
76 C_1848 141.834 99.786 1.237 c 1 NIL_1    0.000
77 C_2192 160.945 100.958 -0.614 c2 1 NIL_1    0.000
78 C_2271 148.132 119.371 1.512 c3 1 NIL_1    0.000
79 C_1866 141.299 98.862 -1.063 c3 1 NIL_1    0.000
80 O 140.982 99.222 1.894 o 1 NIL_1    0.000
81 O 162.206 101.233 -0.150 os 1 NIL_1    0.000
82 C_1867 140.018 98.187 -0.605 c2 1 NIL_1    0.000
83 C_2269 163.321 100.421 -0.596 c3 1 NIL_1    0.000
84 C_2172 138.857 98.846 -0.645 c2 1 NIL_1    0.000
85 C_2180 140.029 96.932 -0.141 c2 1 NIL_1    0.000
86 C_2174 137.729 98.266 -0.230 c2 1 NIL_1    0.000
87 C_2178 138.902 96.350 0.274 c2 1 NIL_1    0.000
88 C_2176 137.739 97.012 0.228 c2 1 NIL_1    0.000
89 O 136.557 96.469 0.653 os 1 NIL_1    0.000
90 C_2273 136.267 95.106 0.262 c3 1 NIL_1    0.000
91 H_22731 136.337 95.014 -0.826 h1 1 NIL_1    0.000
92 H_22732 135.250 94.864 0.581 h1 1 NIL_1    0.000
93 H_22733 136.965 94.417 0.743 h1 1 NIL_1    0.000
94 H_2178 138.947 95.334 0.659 ha 1 NIL_1    0.000
95 H_2174 136.794 98.822 -0.269 ha 1 NIL_1    0.000
96 H_2180 140.964 96.378 -0.091 ha 1 NIL_1    0.000
97 H_2172 138.826 99.869 -1.012 ha 1 NIL_1    0.000
98 H_22691 163.349 100.407 -1.689 h1 1 NIL_1    0.000
99 H_22692 163.224 99.405 -0.207 h1 1 NIL_1    0.000
100 H_22693 164.245 100.863 -0.216 h1 1 NIL_1    0.000
101 H_18661 141.988 98.095 -1.430 h1 1 NIL_1    0.000
102 H_18662 141.051 99.497 -1.919 h1 1 NIL_1    0.000
103 H_22711 147.281 119.562 0.853 h1 1 NIL_1    0.000
104 H_22712 148.630 120.316 1.744 h1 1 NIL_1    0.000
105 H_22713 147.794 118.903 2.441 h1 1 NIL_1    0.000
106 H_2190 161.256 98.921 -1.110 ha 1 NIL_1    0.000
107 H_2194 160.337 102.928 -0.209 ha 1 NIL_1    0.000
108 H_18751 150.771 96.466 -2.400 h1 1 NIL_1    0.000
109 H_18752 149.770 96.517 -3.880 h1 1 NIL_1    0.000
110 H_18753 148.990 96.295 -2.288 h1 1 NIL_1    0.000
111 H_2188 159.024 98.580 -1.867 ha 1 NIL_1    0.000
112 H_2196 158.088 102.571 -0.974 ha 1 NIL_1    0.000
113 H_18811 139.175 105.969 -1.320 h1 1 NIL_1    0.000
114 H_18812 140.025 107.155 -0.290 h1 1 NIL_1    0.000
115 H_18813 139.875 105.452 0.240 h1 1 NIL_1    0.000
116 H_18251 145.384 100.915 2.008 h1 1 NIL_1    0.000
117 H_18252 145.407 99.929 0.514 h1 1 NIL_1    0.000
118 H_2210 146.696 117.305 1.198 ha 1 NIL_1    0.000
119 H_2206 150.522 116.935 -0.523 ha 1 NIL_1    0.000
120 H_18271 143.511 103.168 1.577 hc 1 NIL_1    0.000
121 H_18272 142.701 103.021 0.001 hc 1 NIL_1    0.000
122 H_2212 146.105 115.176 0.335 ha 1 NIL_1    0.000
123 H_2204 149.910 114.777 -1.383 ha 1 NIL_1    0.000
124 H_18731 150.773 98.533 -0.958 h1 1 NIL_1    0.000
125 H_18732 149.029 98.235 -0.734 h1 1 NIL_1    0.000
126 H_18641 156.776 101.024 -2.743 h1 1 NIL_1    0.000
127 H_18642 156.882 99.313 -2.320 h1 1 NIL_1    0.000
128 H_18791 142.310 105.315 0.418 h1 1 NIL_1    0.000
129 H_18792 142.522 106.987 -0.167 h1 1 NIL_1    0.000
130 H_1842 144.792 103.011 -1.171 h1 1 NIL_1    0.000
131 H_18701 150.274 100.729 -2.019 h1 1 NIL_1    0.000
132 H_18702 148.557 100.398 -1.930 h1 1 NIL_1    0.000
133 H_18351 148.005 100.815 1.530 h1 1 NIL_1    0.000
134 H_18352 147.537 99.897 0.086 h1 1 NIL_1    0.000
135 H_18721 143.481 104.506 -1.687 h1 1 NIL_1    0.000
136 H_18722 143.789 106.177 -2.128 h1 1 NIL_1    0.000
137 H_18681 146.489 113.447 -1.227 h1 1 NIL_1    0.000
138 H_18682 147.992 113.403 -2.134 h1 1 NIL_1    0.000
139 H_18151 152.429 100.032 1.086 hc 1 NIL_1    0.000
140 H_18152 152.637 99.825 -0.666 hc 1 NIL_1    0.000
141 H_18401 145.560 107.168 0.649 h1 1 NIL_1    0.000
142 H_18402 144.978 107.579 -0.975 h1 1 NIL_1    0.000
143 H_1832 151.583 101.902 -1.130 h1 1 NIL_1    0.000
144 H_18131 153.795 102.524 1.965 h1 1 NIL_1    0.000
145 H_18132 154.569 103.273 0.539 h1 1 NIL_1    0.000
146 H_18161 147.293 108.660 1.302 h1 1 NIL_1    0.000
147 H_18162 146.390 109.384 -0.061 h1 1 NIL_1    0.000
148 H_18181 150.199 108.961 0.715 hc 1 NIL_1    0.000
149 H_18182 150.433 109.855 -0.801 hc 1 NIL_1    0.000
150 H_1837 149.146 108.315 -2.038 h1 1 NIL_1    0.000
151 H_18291 150.603 104.313 -1.179 h1 1 NIL_1    0.000
152 H_18292 149.933 103.879 0.387 h1 1 NIL_1    0.000
153 H_18711 148.692 105.269 1.481 h1 1 NIL_1    0.000
154 H_18712 148.859 107.015 1.432 h1 1 NIL_1    0.000
155 H_18761 149.641 105.830 3.521 h1 1 NIL_1    0.000
156 H_18762 151.086 105.324 2.641 h1 1 NIL_1    0.000
157 H_18781 152.879 107.017 2.711 h1 1 NIL_1    0.000
158 H_18782 152.386 108.732 2.670 h1 1 NIL_1    0.000
159 H_18783 152.048 107.682 1.269 h1 1 NIL_1    0.000
160 HH 142.822 100.864 2.719 hn 1 NIL_1    0.000
161 HH 154.838 100.097 2.038 hn 1 NIL_1    0.000
162 HH 148.764 110.636 2.195 hn 1 NIL_1    0.000
@<TRIPOS>BOND
1 1 2 1 
2 2 3 1 
3 4 3 1 
4 5 6 1 
5 5 4 1 
6 7 5 1 
7 7 10 1 
8 8 6 2 
9 9 11 1 
10 9 12 1 
11 9 6 1 
12 9 150 1 
13 11 15 1 
14 11 148 1 
15 11 149 1 
16 12 16 1 
17 12 17 1 
18 13 10 2 
19 14 18 1 
20 14 10 1 
21 15 16 1 
22 15 20 1 
23 15 21 1 
24 16 146 1 
25 16 147 1 
26 17 23 1 
27 18 144 1 
28 18 145 1 
29 19 25 1 
30 19 14 1 
31 19 26 1 
32 19 143 1 
33 20 28 2 
34 21 29 1 
35 22 17 2 
36 23 30 1 
37 24 18 1 
38 24 31 1 
39 24 32 1 
40 25 24 1 
41 25 139 1 
42 25 140 1 
43 26 34 1 
44 27 20 1 
45 27 35 1 
46 29 27 1 
47 29 36 2 
48 30 38 1 
49 31 40 2 
50 32 41 1 
51 33 26 2 
52 34 43 1 
53 37 30 1 
54 38 47 1 
55 39 31 1 
56 39 48 1 
57 41 39 1 
58 41 49 2 
59 42 34 1 
60 44 35 1 
61 44 52 2 
62 45 37 2 
63 46 54 1 
64 46 55 1 
65 46 37 1 
66 48 57 1 
67 50 58 2 
68 50 42 1 
69 50 55 1 
70 51 43 1 
71 53 61 2 
72 53 44 1 
73 53 122 1 
74 54 62 1 
75 55 63 1 
76 56 47 1 
77 57 65 1 
78 59 51 1 
79 60 52 1 
80 61 68 1 
81 61 118 1 
82 62 63 1 
83 62 69 1 
84 62 70 1 
85 64 56 1 
86 66 72 1 
87 66 57 2 
88 67 59 1 
89 68 60 2 
90 70 76 1 
91 71 65 2 
92 73 68 1 
93 74 69 1 
94 74 79 1 
95 75 69 2 
96 76 74 1 
97 77 81 1 
98 77 71 1 
99 77 72 2 
100 78 73 1 
101 78 103 1 
102 78 104 1 
103 78 105 1 
104 80 76 2 
105 82 79 1 
106 82 84 2 
107 82 85 1 
108 83 81 1 
109 85 87 2 
110 86 84 1 
111 87 88 1 
112 88 86 2 
113 89 88 1 
114 90 89 1 
115 91 90 1 
116 92 90 1 
117 93 90 1 
118 94 87 1 
119 95 86 1 
120 96 85 1 
121 97 84 1 
122 98 83 1 
123 99 83 1 
124 100 83 1 
125 101 79 1 
126 102 79 1 
127 106 72 1 
128 107 71 1 
129 108 67 1 
130 109 67 1 
131 110 67 1 
132 111 66 1 
133 112 65 1 
134 113 64 1 
135 114 64 1 
136 115 64 1 
137 116 63 1 
138 117 63 1 
139 119 60 1 
140 120 54 1 
141 121 54 1 
142 123 52 1 
143 124 51 1 
144 125 51 1 
145 126 48 1 
146 127 48 1 
147 128 47 1 
148 129 47 1 
149 130 46 1 
150 131 43 1 
151 132 43 1 
152 133 42 1 
153 134 42 1 
154 135 38 1 
155 136 38 1 
156 137 35 1 
157 138 35 1 
158 141 23 1 
159 142 23 1 
160 151 7 1 
161 152 7 1 
162 153 4 1 
163 154 4 1 
164 155 3 1 
165 156 3 1 
166 157 1 1 
167 158 1 1 
168 159 1 1 
169 160 70 1 
170 161 32 1 
171 162 21 1 
@<TRIPOS>SUBSTRUCTURE
1 NIL_1 1 RESIDUE 1 A NIL 1
