@<TRIPOS>MOLECULE
NIL
140 144 1 0 0
POLYMER
CHARGES


@<TRIPOS>ATOM
1 NH 141.498 159.843 1.96882 N.am 1 NIL_1    0.000
2 C_1468 142.339 158.984 1.343 C.2 1 NIL_1    0.000
3 C_1465 140.033 159.844 1.846 C.3 1 NIL_1    0.000
4 O 143.486 159.329 1.139 O.2 1 NIL_1    0.000
5 C_1467 141.824 157.600 0.949 C.3 1 NIL_1    0.000
6 C_1466 139.597 159.981 0.387 C.2 1 NIL_1    0.000
7 C_2455 139.414 160.911 2.794 C.3 1 NIL_1    0.000
8 NH 142.565 157.122 -0.236 N.am 1 NIL_1    0.000
9 C_2453 141.781 156.665 2.197 C.3 1 NIL_1    0.000
10 O 138.755 159.222 -0.055 O.2 1 NIL_1    0.000
11 N 140.198 160.891 -0.435 N.am 1 NIL_1    0.000
12 C_2467 137.864 160.978 2.902 C.3 1 NIL_1    0.000
13 C_1469 142.105 156.281 -1.196 C.2 1 NIL_1    0.000
14 C_2461 143.140 156.192 2.803 C.3 1 NIL_1    0.000
15 C_1441 141.157 161.950 -0.089 C.3 1 NIL_1    0.000
16 C_1462 139.956 160.938 -1.882 C.3 1 NIL_1    0.000
17 C_2469 137.211 159.602 3.162 C.3 1 NIL_1    0.000
18 C_2471 137.202 161.692 1.702 C.3 1 NIL_1    0.000
19 O 142.501 156.423 -2.337 O.2 1 NIL_1    0.000
20 C_1460 141.166 155.144 -0.802 C.3 1 NIL_1    0.000
21 C_2463 142.911 154.914 3.647 C.3 1 NIL_1    0.000
22 C_2465 143.813 157.259 3.703 C.3 1 NIL_1    0.000
23 C_1442 141.084 163.006 -1.205 C.3 1 NIL_1    0.000
24 C_1443 140.444 162.299 -2.414 C.3 1 NIL_1    0.000
25 C_1463 140.663 159.813 -2.629 C.2 1 NIL_1    0.000
26 N 140.583 154.427 -1.958 N.am 1 NIL_1    0.000
27 C_2322 141.935 154.080 0.024 C.3 1 NIL_1    0.000
28 C_1479 140.166 164.125 -0.768 C.2 1 NIL_1    0.000
29 N 142.306 163.790 -1.459 N.am 1 NIL_1    0.000
30 O 141.805 159.494 -2.370 O.2 1 NIL_1    0.000
31 NH 140.022 159.206 -3.654 N.am 1 NIL_1    0.000
32 C_1458 139.648 154.859 -2.853 C.2 1 NIL_1    0.000
33 C_2318 141.216 153.099 -2.084 C.3 1 NIL_1    0.000
34 C_2320 142.194 152.886 -0.912 C.3 1 NIL_1    0.000
35 N 140.860 165.284 -0.788 N.am 1 NIL_1    0.000
36 O 138.996 164.010 -0.457 O.2 1 NIL_1    0.000
37 C_1481 142.138 165.100 -1.195 C.2 1 NIL_1    0.000
38 C_2185 143.635 163.143 -1.536 C.3 1 NIL_1    0.000
39 C_1454 138.565 159.102 -3.817 C.3 1 NIL_1    0.000
40 O 139.323 154.118 -3.764 O.2 1 NIL_1    0.000
41 C_1457 139.004 156.248 -2.724 C.3 1 NIL_1    0.000
42 C_2328 141.937 151.557 -0.224 C.2 1 NIL_1    0.000
43 N 143.602 152.658 -1.279 N.am 1 NIL_1    0.000
44 C_1513 140.244 166.582 -0.454 C.3 1 NIL_1    0.000
45 O 143.003 165.952 -1.295 O.2 1 NIL_1    0.000
46 C_2187 143.800 162.072 -2.592 C.2 1 NIL_1    0.000
47 C_1455 138.235 157.827 -4.597 C.2 1 NIL_1    0.000
48 C_2457 137.918 160.366 -4.468 C.3 1 NIL_1    0.000
49 NH 138.416 156.612 -4.029 N.am 1 NIL_1    0.000
50 C_2459 137.956 156.341 -1.576 C.3 1 NIL_1    0.000
51 N 143.075 150.821 -0.246 N.am 1 NIL_1    0.000
52 O 140.881 151.195 0.260 O.2 1 NIL_1    0.000
53 C_2332 144.080 151.464 -0.882 C.2 1 NIL_1    0.000
54 C_2349 144.386 153.675 -1.996 C.3 1 NIL_1    0.000
55 C_1514 141.162 167.553 0.261 C.2 1 NIL_1    0.000
56 OH 144.399 161.007 -2.132 O.3 1 NIL_1    0.000
57 O 143.573 162.240 -3.773 O.2 1 NIL_1    0.000
58 O 137.840 157.850 -5.746 O.2 1 NIL_1    0.000
59 C_2479 136.449 160.649 -4.031 C.3 1 NIL_1    0.000
60 C_2473 136.990 155.136 -1.393 C.3 1 NIL_1    0.000
61 C_2347 143.168 149.434 0.251 C.3 1 NIL_1    0.000
62 O 145.204 151.045 -1.086 O.2 1 NIL_1    0.000
63 C_2375 144.254 153.586 -3.503 C.2 1 NIL_1    0.000
64 O 141.545 167.401 1.403 O.2 1 NIL_1    0.000
65 OH 141.536 168.557 -0.489 O.3 1 NIL_1    0.000
66 C_2481 136.371 161.287 -2.625 C.3 1 NIL_1    0.000
67 C_2483 135.533 159.404 -4.094 C.3 1 NIL_1    0.000
68 C_2475 136.038 154.930 -2.593 C.3 1 NIL_1    0.000
69 C_2477 136.160 155.345 -0.105 C.3 1 NIL_1    0.000
70 C_2373 144.425 149.152 1.051 C.2 1 NIL_1    0.000
71 OH 144.385 154.743 -4.094 O.3 1 NIL_1    0.000
72 O 144.046 152.554 -4.110 O.2 1 NIL_1    0.000
73 OH 145.227 148.295 0.475 O.3 1 NIL_1    0.000
74 O 144.704 149.722 2.086 O.2 1 NIL_1    0.000
75 H_24771 136.815 155.479 0.760 H 1 NIL_1    0.000
76 H_24772 135.527 154.476 0.090 H 1 NIL_1    0.000
77 H_24773 135.521 156.228 -0.190 H 1 NIL_1    0.000
78 H_24751 135.350 154.106 -2.388 H 1 NIL_1    0.000
79 H_24752 136.592 154.678 -3.499 H 1 NIL_1    0.000
80 H_24753 135.449 155.831 -2.787 H 1 NIL_1    0.000
81 H_24831 135.544 158.969 -5.095 H 1 NIL_1    0.000
82 H_24832 134.503 159.675 -3.854 H 1 NIL_1    0.000
83 H_24833 135.848 158.642 -3.377 H 1 NIL_1    0.000
84 H_24811 135.355 161.635 -2.426 H 1 NIL_1    0.000
85 H_24812 137.037 162.150 -2.550 H 1 NIL_1    0.000
86 H_24813 136.642 160.569 -1.848 H 1 NIL_1    0.000
87 H_23471 143.157 148.758 -0.609 H 1 NIL_1    0.000
88 H_23472 142.315 149.193 0.890 H 1 NIL_1    0.000
89 H_2473 137.578 154.226 -1.261 H 1 NIL_1    0.000
90 H_2479 136.050 161.383 -4.735 H 1 NIL_1    0.000
91 H_23491 145.447 153.548 -1.767 H 1 NIL_1    0.000
92 H_23492 144.095 154.671 -1.668 H 1 NIL_1    0.000
93 H_24591 137.361 157.248 -1.704 H 1 NIL_1    0.000
94 H_24592 138.500 156.478 -0.642 H 1 NIL_1    0.000
95 H_24571 137.958 160.294 -5.556 H 1 NIL_1    0.000
96 H_24572 138.511 161.252 -4.235 H 1 NIL_1    0.000
97 H_15131 139.379 166.430 0.198 H 1 NIL_1    0.000
98 H_15132 139.904 167.050 -1.382 H 1 NIL_1    0.000
99 H_1457 139.811 156.946 -2.506 H 1 NIL_1    0.000
100 H_1454 138.145 158.973 -2.818 H 1 NIL_1    0.000
101 H_21851 143.869 162.705 -0.562 H 1 NIL_1    0.000
102 H_21852 144.400 163.895 -1.748 H 1 NIL_1    0.000
103 H_23181 141.730 153.037 -3.043 H 1 NIL_1    0.000
104 H_23182 140.433 152.337 -2.065 H 1 NIL_1    0.000
105 H_23221 142.868 154.462 0.444 H 1 NIL_1    0.000
106 H_23222 141.299 153.765 0.853 H 1 NIL_1    0.000
107 H_14431 141.140 162.177 -3.242 H 1 NIL_1    0.000
108 H_14432 139.594 162.869 -2.799 H 1 NIL_1    0.000
109 H_24651 144.250 158.060 3.112 H 1 NIL_1    0.000
110 H_24652 144.631 156.817 4.277 H 1 NIL_1    0.000
111 H_24653 143.100 157.690 4.410 H 1 NIL_1    0.000
112 H_24631 142.176 155.094 4.436 H 1 NIL_1    0.000
113 H_24632 143.840 154.581 4.117 H 1 NIL_1    0.000
114 H_24633 142.546 154.098 3.020 H 1 NIL_1    0.000
115 H_1460 140.370 155.570 -0.192 H 1 NIL_1    0.000
116 H_24711 136.138 161.850 1.895 H 1 NIL_1    0.000
117 H_24712 137.280 161.113 0.785 H 1 NIL_1    0.000
118 H_24713 137.662 162.668 1.538 H 1 NIL_1    0.000
119 H_24691 136.147 159.728 3.380 H 1 NIL_1    0.000
120 H_24692 137.676 159.114 4.021 H 1 NIL_1    0.000
121 H_24693 137.303 158.944 2.295 H 1 NIL_1    0.000
122 H_1462 138.885 160.864 -2.031 H 1 NIL_1    0.000
123 H_14411 142.153 161.508 -0.038 H 1 NIL_1    0.000
124 H_14412 140.918 162.409 0.870 H 1 NIL_1    0.000
125 H_2461 143.830 155.935 1.997 H 1 NIL_1    0.000
126 H_2467 137.656 161.601 3.777 H 1 NIL_1    0.000
127 H_24531 141.189 155.790 1.932 H 1 NIL_1    0.000
128 H_24532 141.195 157.153 2.980 H 1 NIL_1    0.000
129 H_24551 139.781 161.905 2.539 H 1 NIL_1    0.000
130 H_24552 139.797 160.708 3.797 H 1 NIL_1    0.000
131 H_1467 140.794 157.720 0.614 H 1 NIL_1    0.000
132 H_1465 139.685 158.863 2.178 H 1 NIL_1    0.000
133 HH 138.155 155.820 -4.598 H 1 NIL_1    0.000
134 HH 140.565 158.577 -4.227 H 1 NIL_1    0.000
135 HH 143.303 157.747 -0.523 H 1 NIL_1    0.000
136 HH 141.894 160.697 2.330 H 1 NIL_1    0.000
137 HH 144.808 148.018 -0.360 H 1 NIL_1    0.000
138 HH 144.551 155.406 -3.400 H 1 NIL_1    0.000
139 HH 142.116 169.123 0.050 H 1 NIL_1    0.000
140 HH 144.531 161.147 -1.177 H 1 NIL_1    0.000
@<TRIPOS>BOND
1 1 2 1 
2 3 1 1 
3 3 6 1 
4 4 2 2 
5 5 8 1 
6 5 2 1 
7 6 11 1 
8 7 3 1 
9 7 129 1 
10 7 130 1 
11 8 13 1 
12 9 5 1 
13 9 127 1 
14 9 128 1 
15 10 6 2 
16 12 7 1 
17 12 126 1 
18 14 9 1 
19 14 125 1 
20 15 11 1 
21 15 23 1 
22 16 24 1 
23 16 11 1 
24 17 12 1 
25 17 119 1 
26 17 120 1 
27 17 121 1 
28 18 12 1 
29 18 116 1 
30 18 117 1 
31 18 118 1 
32 19 13 2 
33 20 26 1 
34 20 13 1 
35 21 14 1 
36 21 112 1 
37 21 113 1 
38 21 114 1 
39 22 14 1 
40 22 109 1 
41 22 110 1 
42 22 111 1 
43 24 23 1 
44 25 16 1 
45 26 32 1 
46 27 34 1 
47 27 20 1 
48 28 23 1 
49 29 37 1 
50 29 23 1 
51 30 25 2 
52 31 25 1 
53 33 26 1 
54 33 34 1 
55 35 28 1 
56 36 28 2 
57 37 35 1 
58 38 29 1 
59 39 31 1 
60 39 47 1 
61 40 32 2 
62 41 49 1 
63 41 32 1 
64 42 34 1 
65 43 53 1 
66 43 34 1 
67 44 35 1 
68 45 37 2 
69 46 38 1 
70 48 39 1 
71 49 47 1 
72 50 41 1 
73 51 42 1 
74 52 42 2 
75 53 51 1 
76 54 43 1 
77 55 44 1 
78 55 65 1 
79 56 46 1 
80 57 46 2 
81 58 47 2 
82 59 48 1 
83 59 90 1 
84 60 50 1 
85 60 89 1 
86 61 51 1 
87 62 53 2 
88 63 54 1 
89 64 55 2 
90 66 59 1 
91 66 84 1 
92 66 85 1 
93 66 86 1 
94 67 59 1 
95 67 81 1 
96 67 82 1 
97 67 83 1 
98 68 60 1 
99 68 78 1 
100 68 79 1 
101 68 80 1 
102 69 60 1 
103 69 76 1 
104 69 77 1 
105 70 61 1 
106 71 63 1 
107 72 63 2 
108 73 70 1 
109 74 70 2 
110 75 69 1 
111 87 61 1 
112 88 61 1 
113 91 54 1 
114 92 54 1 
115 93 50 1 
116 94 50 1 
117 95 48 1 
118 96 48 1 
119 97 44 1 
120 98 44 1 
121 99 41 1 
122 100 39 1 
123 101 38 1 
124 102 38 1 
125 103 33 1 
126 104 33 1 
127 105 27 1 
128 106 27 1 
129 107 24 1 
130 108 24 1 
131 115 20 1 
132 122 16 1 
133 123 15 1 
134 124 15 1 
135 131 5 1 
136 132 3 1 
137 133 49 1 
138 134 31 1 
139 135 8 1 
140 136 1 1 
141 137 73 1 
142 138 71 1 
143 139 65 1 
144 140 56 1 
@<TRIPOS>SUBSTRUCTURE
1 NIL_1 1 RESIDUE 1 A NIL 1
