@<TRIPOS>MOLECULE
NIL
150 160 1 0 0
POLYMER
CHARGES


@<TRIPOS>ATOM
1 C_1452 162.701 178.05 -0.352323 C.3 1 NIL_1    0.000
2 C_1451 164.054 177.387 -0.024 C.3 1 NIL_1    0.000
3 C_1467 163.045 179.433 -0.939 C.3 1 NIL_1    0.000
4 C_1450 164.958 178.620 0.260 C.3 1 NIL_1    0.000
5 C_1471 164.572 176.725 -1.316 C.2 1 NIL_1    0.000
6 N 163.923 176.441 1.133 N.am 1 NIL_1    0.000
7 N 164.434 179.746 -0.522 N.am 1 NIL_1    0.000
8 C_1468 161.959 180.420 -0.522 C.2 1 NIL_1    0.000
9 O 164.961 177.369 -2.274 O.2 1 NIL_1    0.000
10 N 164.624 175.375 -1.356 N.am 1 NIL_1    0.000
11 C_2201 163.881 175.085 1.020 C.2 1 NIL_1    0.000
12 C_2212 163.709 177.067 2.461 C.3 1 NIL_1    0.000
13 C_1469 165.184 180.841 -0.835 C.2 1 NIL_1    0.000
14 O 160.871 180.426 -1.062 O.2 1 NIL_1    0.000
15 NH 162.279 181.301 0.455 N.am 1 NIL_1    0.000
16 C_2199 164.070 174.478 -0.351 C.3 1 NIL_1    0.000
17 C_2225 165.290 174.573 -2.393 C.3 1 NIL_1    0.000
18 O 163.707 174.367 1.988 O.2 1 NIL_1    0.000
19 C_2216 164.947 177.037 3.335 C.2 1 NIL_1    0.000
20 O 166.262 181.028 -0.303 O.2 1 NIL_1    0.000
21 C_1460 164.665 181.780 -1.916 C.3 1 NIL_1    0.000
22 C_1465 161.458 182.456 0.846 C.3 1 NIL_1    0.000
23 C_2229 164.977 173.238 -0.360 C.3 1 NIL_1    0.000
24 C_2227 165.417 173.134 -1.834 C.3 1 NIL_1    0.000
25 O 166.017 176.566 2.999 O.2 1 NIL_1    0.000
26 OH 164.751 177.600 4.497 O.3 1 NIL_1    0.000
27 NH 165.274 183.120 -1.874 N.am 1 NIL_1    0.000
28 C_1466 161.693 183.636 -0.076 C.2 1 NIL_1    0.000
29 N 166.713 172.491 -2.053 N.am 1 NIL_1    0.000
30 C_2235 164.539 172.156 -2.587 C.2 1 NIL_1    0.000
31 C_1458 164.853 184.168 -2.620 C.2 1 NIL_1    0.000
32 O 161.832 183.506 -1.276 O.2 1 NIL_1    0.000
33 NH 161.757 184.849 0.515 N.am 1 NIL_1    0.000
34 C_2239 166.628 171.352 -2.768 C.2 1 NIL_1    0.000
35 C_2461 167.948 173.145 -1.577 C.3 1 NIL_1    0.000
36 N 165.323 171.164 -3.074 N.am 1 NIL_1    0.000
37 O 163.333 172.234 -2.727 O.2 1 NIL_1    0.000
38 O 163.976 184.060 -3.456 O.2 1 NIL_1    0.000
39 C_1457 165.547 185.485 -2.328 C.3 1 NIL_1    0.000
40 C_1462 162.341 185.999 -0.180 C.3 1 NIL_1    0.000
41 O 167.558 170.638 -3.086 O.2 1 NIL_1    0.000
42 C_2463 168.801 173.730 -2.688 C.2 1 NIL_1    0.000
43 C_2403 164.828 170.017 -3.856 C.3 1 NIL_1    0.000
44 NH 164.614 186.621 -2.363 N.am 1 NIL_1    0.000
45 C_1463 162.095 187.357 0.449 C.2 1 NIL_1    0.000
46 O 168.595 173.573 -3.876 O.2 1 NIL_1    0.000
47 OH 169.780 174.466 -2.235 O.3 1 NIL_1    0.000
48 C_2405 164.663 168.773 -3.002 C.2 1 NIL_1    0.000
49 C_1455 164.602 187.624 -1.456 C.2 1 NIL_1    0.000
50 O 161.483 187.464 1.496 O.2 1 NIL_1    0.000
51 N 162.576 188.452 -0.205 N.am 1 NIL_1    0.000
52 C_2407 163.505 168.510 -2.387 C.2 1 NIL_1    0.000
53 C_2415 165.681 167.919 -2.855 C.2 1 NIL_1    0.000
54 O 165.506 187.785 -0.657 O.2 1 NIL_1    0.000
55 C_1454 163.346 188.492 -1.470 C.3 1 NIL_1    0.000
56 C_2313 162.321 189.820 0.261 C.3 1 NIL_1    0.000
57 C_2409 163.370 167.414 -1.634 C.2 1 NIL_1    0.000
58 C_2413 165.551 166.826 -2.102 C.2 1 NIL_1    0.000
59 C_2317 163.702 189.965 -1.774 C.3 1 NIL_1    0.000
60 C_2315 163.050 190.837 -0.668 C.3 1 NIL_1    0.000
61 C_2411 164.394 166.574 -1.491 C.2 1 NIL_1    0.000
62 C_2323 161.963 191.702 -1.325 C.2 1 NIL_1    0.000
63 N 164.095 191.622 0.073 N.am 1 NIL_1    0.000
64 N 162.122 193.043 -1.296 N.am 1 NIL_1    0.000
65 O 160.970 191.214 -1.833 O.2 1 NIL_1    0.000
66 C_2329 164.313 192.958 -0.082 C.2 1 NIL_1    0.000
67 C_2472 164.986 190.830 0.960 C.3 1 NIL_1    0.000
68 C_2327 163.357 193.735 -0.960 C.3 1 NIL_1    0.000
69 C_2339 161.100 194.039 -1.646 C.3 1 NIL_1    0.000
70 O 165.236 193.525 0.474 O.2 1 NIL_1    0.000
71 C_2476 164.769 191.109 2.437 C.2 1 NIL_1    0.000
72 C_2343 162.937 195.096 -0.382 C.3 1 NIL_1    0.000
73 C_2341 161.577 195.388 -1.054 C.3 1 NIL_1    0.000
74 OH 165.520 190.363 3.203 O.3 1 NIL_1    0.000
75 O 163.958 191.900 2.880 O.2 1 NIL_1    0.000
76 C_2349 161.727 196.452 -2.117 C.2 1 NIL_1    0.000
77 N 160.602 196.063 -0.193 N.am 1 NIL_1    0.000
78 N 160.963 197.515 -1.771 N.am 1 NIL_1    0.000
79 O 162.426 196.374 -3.110 O.2 1 NIL_1    0.000
80 C_2353 160.286 197.301 -0.619 C.2 1 NIL_1    0.000
81 C_2439 160.058 195.368 0.990 C.3 1 NIL_1    0.000
82 C_2399 160.852 198.750 -2.571 C.3 1 NIL_1    0.000
83 O 159.523 198.072 -0.069 O.2 1 NIL_1    0.000
84 C_2452 158.617 194.919 0.839 C.2 1 NIL_1    0.000
85 C_2401 161.250 200.010 -1.826 C.2 1 NIL_1    0.000
86 O 157.843 195.349 0.007 O.2 1 NIL_1    0.000
87 OH 158.279 194.007 1.714 O.3 1 NIL_1    0.000
88 C_2423 162.525 200.220 -1.480 C.2 1 NIL_1    0.000
89 C_2431 160.334 200.934 -1.512 C.2 1 NIL_1    0.000
90 C_2425 162.879 201.333 -0.835 C.2 1 NIL_1    0.000
91 C_2429 160.685 202.048 -0.867 C.2 1 NIL_1    0.000
92 C_2427 161.958 202.248 -0.529 C.2 1 NIL_1    0.000
93 H_2427 162.247 203.158 -0.009 H 1 NIL_1    0.000
94 H_2429 159.932 202.793 -0.621 H 1 NIL_1    0.000
95 H_2425 163.919 201.497 -0.563 H 1 NIL_1    0.000
96 H_2431 159.292 200.783 -1.784 H 1 NIL_1    0.000
97 H_2423 163.284 199.482 -1.728 H 1 NIL_1    0.000
98 H_23991 159.817 198.836 -2.913 H 1 NIL_1    0.000
99 H_23992 161.480 198.663 -3.462 H 1 NIL_1    0.000
100 H_24391 160.101 196.034 1.855 H 1 NIL_1    0.000
101 H_24392 160.655 194.478 1.205 H 1 NIL_1    0.000
102 H_23431 162.823 195.024 0.702 H 1 NIL_1    0.000
103 H_23432 163.685 195.864 -0.592 H 1 NIL_1    0.000
104 H_23391 160.133 193.743 -1.232 H 1 NIL_1    0.000
105 H_23392 161.017 194.098 -2.735 H 1 NIL_1    0.000
106 H_2327 163.888 193.900 -1.902 H 1 NIL_1    0.000
107 H_24721 166.030 191.058 0.730 H 1 NIL_1    0.000
108 H_24722 164.839 189.758 0.813 H 1 NIL_1    0.000
109 H_2411 164.287 165.683 -0.877 H 1 NIL_1    0.000
110 H_23171 164.785 190.111 -1.801 H 1 NIL_1    0.000
111 H_23172 163.334 190.232 -2.768 H 1 NIL_1    0.000
112 H_2413 166.388 166.143 -1.988 H 1 NIL_1    0.000
113 H_2409 162.425 167.209 -1.136 H 1 NIL_1    0.000
114 H_23131 162.652 189.900 1.299 H 1 NIL_1    0.000
115 H_23132 161.240 189.986 0.261 H 1 NIL_1    0.000
116 H_1454 162.694 188.123 -2.270 H 1 NIL_1    0.000
117 H_2415 166.628 168.110 -3.353 H 1 NIL_1    0.000
118 H_2407 162.663 169.188 -2.495 H 1 NIL_1    0.000
119 H_24031 165.541 169.814 -4.660 H 1 NIL_1    0.000
120 H_24032 163.875 170.277 -4.325 H 1 NIL_1    0.000
121 H_14621 161.978 186.042 -1.211 H 1 NIL_1    0.000
122 H_14622 163.420 185.840 -0.174 H 1 NIL_1    0.000
123 H_14571 166.015 185.415 -1.343 H 1 NIL_1    0.000
124 H_14572 166.324 185.626 -3.083 H 1 NIL_1    0.000
125 H_24611 168.562 172.416 -1.040 H 1 NIL_1    0.000
126 H_24612 167.700 173.962 -0.894 H 1 NIL_1    0.000
127 H_22291 165.840 173.412 0.287 H 1 NIL_1    0.000
128 H_22292 164.455 172.344 -0.007 H 1 NIL_1    0.000
129 H_14651 161.726 182.746 1.865 H 1 NIL_1    0.000
130 H_14652 160.394 182.205 0.811 H 1 NIL_1    0.000
131 H_14601 164.893 181.312 -2.876 H 1 NIL_1    0.000
132 H_14602 163.586 181.881 -1.823 H 1 NIL_1    0.000
133 H_22251 166.275 175.001 -2.599 H 1 NIL_1    0.000
134 H_22252 164.696 174.585 -3.311 H 1 NIL_1    0.000
135 H_2199 163.072 174.193 -0.695 H 1 NIL_1    0.000
136 H_22121 162.915 176.536 2.995 H 1 NIL_1    0.000
137 H_22122 163.394 178.109 2.374 H 1 NIL_1    0.000
138 H_14501 164.945 178.927 1.305 H 1 NIL_1    0.000
139 H_14502 165.994 178.409 -0.021 H 1 NIL_1    0.000
140 H_1467 163.029 179.370 -2.030 H 1 NIL_1    0.000
141 H_14521 162.114 178.183 0.560 H 1 NIL_1    0.000
142 H_14522 162.099 177.450 -1.039 H 1 NIL_1    0.000
143 HH 163.844 186.550 -3.009 H 1 NIL_1    0.000
144 HH 161.611 184.927 1.510 H 1 NIL_1    0.000
145 HH 166.009 183.271 -1.201 H 1 NIL_1    0.000
146 HH 163.197 181.237 0.870 H 1 NIL_1    0.000
147 HH 157.341 193.791 1.563 H 1 NIL_1    0.000
148 HH 165.296 190.578 4.127 H 1 NIL_1    0.000
149 HH 170.271 174.806 -3.006 H 1 NIL_1    0.000
150 HH 165.590 177.551 4.990 H 1 NIL_1    0.000
@<TRIPOS>BOND
1 1 2 1 
2 2 4 1 
3 3 1 1 
4 3 7 1 
5 5 2 1 
6 6 2 1 
7 7 4 1 
8 8 14 2 
9 8 15 1 
10 8 3 1 
11 9 5 2 
12 10 5 1 
13 11 6 1 
14 11 16 1 
15 12 6 1 
16 12 136 1 
17 12 137 1 
18 13 21 1 
19 13 7 1 
20 16 10 1 
21 16 135 1 
22 17 10 1 
23 17 133 1 
24 17 134 1 
25 18 11 2 
26 19 12 1 
27 20 13 2 
28 21 27 1 
29 22 15 1 
30 23 24 1 
31 23 16 1 
32 23 127 1 
33 23 128 1 
34 24 17 1 
35 25 19 2 
36 26 19 1 
37 26 150 1 
38 28 33 1 
39 28 22 1 
40 29 34 1 
41 29 24 1 
42 30 24 1 
43 31 39 1 
44 31 27 1 
45 32 28 2 
46 34 36 1 
47 35 29 1 
48 35 125 1 
49 35 126 1 
50 36 30 1 
51 37 30 2 
52 38 31 2 
53 39 44 1 
54 40 33 1 
55 41 34 2 
56 42 35 1 
57 43 36 1 
58 43 119 1 
59 43 120 1 
60 45 51 1 
61 45 40 1 
62 46 42 2 
63 47 42 1 
64 47 149 1 
65 48 43 1 
66 49 44 1 
67 49 55 1 
68 50 45 2 
69 52 48 2 
70 52 118 1 
71 53 58 2 
72 53 48 1 
73 53 117 1 
74 54 49 2 
75 55 51 1 
76 56 51 1 
77 56 114 1 
78 56 115 1 
79 57 52 1 
80 57 113 1 
81 58 61 1 
82 58 112 1 
83 59 60 1 
84 59 55 1 
85 59 110 1 
86 59 111 1 
87 60 56 1 
88 61 57 2 
89 61 109 1 
90 62 60 1 
91 63 66 1 
92 63 60 1 
93 64 62 1 
94 65 62 2 
95 66 68 1 
96 67 63 1 
97 67 107 1 
98 67 108 1 
99 68 64 1 
100 68 106 1 
101 69 64 1 
102 69 104 1 
103 69 105 1 
104 70 66 2 
105 71 67 1 
106 72 73 1 
107 72 68 1 
108 72 102 1 
109 72 103 1 
110 73 69 1 
111 74 71 1 
112 74 148 1 
113 75 71 2 
114 76 73 1 
115 77 80 1 
116 77 73 1 
117 78 76 1 
118 79 76 2 
119 80 78 1 
120 81 77 1 
121 81 100 1 
122 81 101 1 
123 82 78 1 
124 82 98 1 
125 82 99 1 
126 83 80 2 
127 84 81 1 
128 85 82 1 
129 86 84 2 
130 87 84 1 
131 87 147 1 
132 88 85 2 
133 89 91 2 
134 89 85 1 
135 90 88 1 
136 91 92 1 
137 92 90 2 
138 93 92 1 
139 94 91 1 
140 95 90 1 
141 96 89 1 
142 97 88 1 
143 116 55 1 
144 121 40 1 
145 122 40 1 
146 123 39 1 
147 124 39 1 
148 129 22 1 
149 130 22 1 
150 131 21 1 
151 132 21 1 
152 138 4 1 
153 139 4 1 
154 140 3 1 
155 141 1 1 
156 142 1 1 
157 143 44 1 
158 144 33 1 
159 145 27 1 
160 146 15 1 
@<TRIPOS>SUBSTRUCTURE
1 NIL_1 1 RESIDUE 1 A NIL 1
