@<TRIPOS>MOLECULE
NIL
140 144 1 0 0
POLYMER
CHARGES


@<TRIPOS>ATOM
1 O 139.355 166.226 1.3897 O.2 1 NIL_1    0.000
2 C_2187 139.668 165.737 2.457 C.2 1 NIL_1    0.000
3 C_2185 140.544 164.507 2.608 C.3 1 NIL_1    0.000
4 OH 139.256 166.216 3.600 O.3 1 NIL_1    0.000
5 N 141.522 164.358 1.519 N.am 1 NIL_1    0.000
6 C_1481 142.446 165.273 1.172 C.2 1 NIL_1    0.000
7 C_1442 141.464 163.214 0.602 C.3 1 NIL_1    0.000
8 N 143.020 164.853 0.024 N.am 1 NIL_1    0.000
9 O 142.694 166.302 1.773 O.2 1 NIL_1    0.000
10 C_1441 140.103 162.986 -0.067 C.3 1 NIL_1    0.000
11 C_1443 141.808 161.851 1.234 C.3 1 NIL_1    0.000
12 C_1479 142.512 163.669 -0.394 C.2 1 NIL_1    0.000
13 C_1513 144.105 165.587 -0.651 C.3 1 NIL_1    0.000
14 N 139.449 161.852 0.607 N.am 1 NIL_1    0.000
15 C_1462 140.466 161.094 1.378 C.3 1 NIL_1    0.000
16 O 142.847 163.077 -1.403 O.2 1 NIL_1    0.000
17 C_1514 143.736 166.059 -2.042 C.2 1 NIL_1    0.000
18 C_1466 138.171 161.419 0.395 C.2 1 NIL_1    0.000
19 C_1463 140.140 160.805 2.852 C.2 1 NIL_1    0.000
20 O 144.140 165.537 -3.061 O.2 1 NIL_1    0.000
21 OH 142.994 167.135 -2.038 O.3 1 NIL_1    0.000
22 O 137.669 160.589 1.128 O.2 1 NIL_1    0.000
23 C_1465 137.411 161.871 -0.857 C.3 1 NIL_1    0.000
24 O 139.320 161.483 3.442 O.2 1 NIL_1    0.000
25 N 140.809 159.803 3.511 N.am 1 NIL_1    0.000
26 N 138.198 161.864 -2.120 N.am 1 NIL_1    0.000
27 C_1454 141.783 158.856 2.896 C.3 1 NIL_1    0.000
28 C_2407 140.711 159.648 4.991 C.3 1 NIL_1    0.000
29 C_1468 138.983 160.820 -2.521 C.2 1 NIL_1    0.000
30 C_2405 138.217 163.178 -2.814 C.3 1 NIL_1    0.000
31 C_1455 141.472 157.364 3.073 C.2 1 NIL_1    0.000
32 C_2419 141.885 160.264 5.795 C.3 1 NIL_1    0.000
33 O 139.913 161.004 -3.285 O.2 1 NIL_1    0.000
34 C_1467 138.611 159.421 -2.029 C.3 1 NIL_1    0.000
35 C_2436 137.217 163.264 -3.997 C.3 1 NIL_1    0.000
36 O 140.410 156.982 3.526 O.2 1 NIL_1    0.000
37 N 142.432 156.462 2.714 N.am 1 NIL_1    0.000
38 C_2421 141.723 159.932 7.294 C.3 1 NIL_1    0.000
39 C_2423 141.971 161.795 5.615 C.3 1 NIL_1    0.000
40 N 139.603 158.337 -2.272 N.am 1 NIL_1    0.000
41 C_2438 137.607 162.308 -5.149 C.3 1 NIL_1    0.000
42 C_2440 137.137 164.714 -4.526 C.3 1 NIL_1    0.000
43 C_1457 143.448 156.733 1.666 C.3 1 NIL_1    0.000
44 C_2409 142.371 155.042 3.151 C.3 1 NIL_1    0.000
45 C_1469 140.175 157.656 -1.226 C.2 1 NIL_1    0.000
46 C_2403 139.749 157.976 -3.708 C.3 1 NIL_1    0.000
47 C_1458 142.857 157.113 0.306 C.2 1 NIL_1    0.000
48 C_2411 142.920 154.765 4.572 C.3 1 NIL_1    0.000
49 O 139.874 157.912 -0.074 O.2 1 NIL_1    0.000
50 C_1460 141.186 156.538 -1.500 C.3 1 NIL_1    0.000
51 C_2444 138.433 157.619 -4.451 C.3 1 NIL_1    0.000
52 O 143.074 158.211 -0.174 O.2 1 NIL_1    0.000
53 N 142.042 156.226 -0.330 N.am 1 NIL_1    0.000
54 C_2413 144.459 154.885 4.619 C.3 1 NIL_1    0.000
55 C_2415 142.490 153.349 5.016 C.3 1 NIL_1    0.000
56 C_2322 140.455 155.230 -1.887 C.3 1 NIL_1    0.000
57 C_2446 137.672 156.460 -3.769 C.3 1 NIL_1    0.000
58 C_2448 138.753 157.254 -5.912 C.3 1 NIL_1    0.000
59 C_2318 141.877 154.812 0.027 C.3 1 NIL_1    0.000
60 C_2320 141.216 154.109 -1.162 C.3 1 NIL_1    0.000
61 C_2328 142.269 153.472 -2.041 C.2 1 NIL_1    0.000
62 N 140.431 152.916 -0.837 N.am 1 NIL_1    0.000
63 N 142.013 152.145 -2.115 N.am 1 NIL_1    0.000
64 O 143.193 154.044 -2.587 O.2 1 NIL_1    0.000
65 C_2332 140.914 151.793 -1.409 C.2 1 NIL_1    0.000
66 C_2349 139.281 153.032 0.082 C.3 1 NIL_1    0.000
67 C_2347 142.862 151.176 -2.831 C.3 1 NIL_1    0.000
68 O 140.451 150.673 -1.311 O.2 1 NIL_1    0.000
69 C_2375 139.308 152.019 1.207 C.2 1 NIL_1    0.000
70 C_2373 142.234 150.655 -4.108 C.2 1 NIL_1    0.000
71 OH 140.129 152.339 2.172 O.3 1 NIL_1    0.000
72 O 138.657 150.993 1.205 O.2 1 NIL_1    0.000
73 OH 142.935 149.703 -4.665 O.3 1 NIL_1    0.000
74 O 141.216 151.098 -4.603 O.2 1 NIL_1    0.000
75 H_23471 143.050 150.318 -2.179 H 1 NIL_1    0.000
76 H_23472 143.823 151.627 -3.095 H 1 NIL_1    0.000
77 H_23491 138.356 152.883 -0.480 H 1 NIL_1    0.000
78 H_23492 139.256 154.026 0.537 H 1 NIL_1    0.000
79 H_23181 141.215 154.761 0.890 H 1 NIL_1    0.000
80 H_23182 142.841 154.355 0.263 H 1 NIL_1    0.000
81 H_24481 139.406 156.378 -5.959 H 1 NIL_1    0.000
82 H_24482 139.254 158.090 -6.407 H 1 NIL_1    0.000
83 H_24483 137.835 157.032 -6.461 H 1 NIL_1    0.000
84 H_24461 138.266 155.546 -3.770 H 1 NIL_1    0.000
85 H_24462 136.741 156.255 -4.301 H 1 NIL_1    0.000
86 H_24463 137.416 156.711 -2.737 H 1 NIL_1    0.000
87 H_23221 139.425 155.271 -1.525 H 1 NIL_1    0.000
88 H_23222 140.434 155.069 -2.966 H 1 NIL_1    0.000
89 H_24151 142.851 152.595 4.313 H 1 NIL_1    0.000
90 H_24152 141.400 153.275 5.066 H 1 NIL_1    0.000
91 H_24153 142.887 153.115 6.007 H 1 NIL_1    0.000
92 H_24131 144.925 154.216 3.891 H 1 NIL_1    0.000
93 H_24132 144.830 154.620 5.613 H 1 NIL_1    0.000
94 H_24133 144.778 155.905 4.402 H 1 NIL_1    0.000
95 H_2444 137.781 158.494 -4.481 H 1 NIL_1    0.000
96 H_1460 141.847 156.855 -2.311 H 1 NIL_1    0.000
97 H_2411 142.489 155.485 5.273 H 1 NIL_1    0.000
98 H_24031 140.423 157.129 -3.820 H 1 NIL_1    0.000
99 H_24032 140.229 158.807 -4.229 H 1 NIL_1    0.000
100 H_24091 142.918 154.405 2.452 H 1 NIL_1    0.000
101 H_24092 141.328 154.721 3.114 H 1 NIL_1    0.000
102 H_14571 144.079 155.854 1.507 H 1 NIL_1    0.000
103 H_14572 144.096 157.552 1.991 H 1 NIL_1    0.000
104 H_24401 136.430 164.779 -5.357 H 1 NIL_1    0.000
105 H_24402 138.112 165.059 -4.878 H 1 NIL_1    0.000
106 H_24403 136.794 165.391 -3.740 H 1 NIL_1    0.000
107 H_24381 138.626 162.503 -5.493 H 1 NIL_1    0.000
108 H_24382 136.931 162.433 -5.998 H 1 NIL_1    0.000
109 H_24383 137.544 161.266 -4.827 H 1 NIL_1    0.000
110 H_24231 142.200 162.057 4.580 H 1 NIL_1    0.000
111 H_24232 142.766 162.202 6.245 H 1 NIL_1    0.000
112 H_24233 141.030 162.273 5.896 H 1 NIL_1    0.000
113 H_24211 140.779 160.325 7.678 H 1 NIL_1    0.000
114 H_24212 142.539 160.371 7.874 H 1 NIL_1    0.000
115 H_24213 141.738 158.851 7.456 H 1 NIL_1    0.000
116 H_2436 136.224 162.985 -3.637 H 1 NIL_1    0.000
117 H_14671 138.397 159.463 -0.969 H 1 NIL_1    0.000
118 H_14672 137.659 159.174 -2.499 H 1 NIL_1    0.000
119 H_2419 142.823 159.820 5.458 H 1 NIL_1    0.000
120 H_24051 139.227 163.384 -3.180 H 1 NIL_1    0.000
121 H_24052 137.976 163.969 -2.099 H 1 NIL_1    0.000
122 H_24071 140.666 158.589 5.247 H 1 NIL_1    0.000
123 H_24072 139.774 160.083 5.347 H 1 NIL_1    0.000
124 H_14541 142.767 159.037 3.334 H 1 NIL_1    0.000
125 H_14542 141.872 159.033 1.830 H 1 NIL_1    0.000
126 H_14651 136.559 161.196 -0.985 H 1 NIL_1    0.000
127 H_14652 137.020 162.869 -0.645 H 1 NIL_1    0.000
128 H_1462 140.548 160.131 0.875 H 1 NIL_1    0.000
129 H_15131 144.981 164.939 -0.735 H 1 NIL_1    0.000
130 H_15132 144.379 166.470 -0.068 H 1 NIL_1    0.000
131 H_14431 142.331 161.964 2.185 H 1 NIL_1    0.000
132 H_14432 142.456 161.279 0.565 H 1 NIL_1    0.000
133 H_14411 139.477 163.880 -0.028 H 1 NIL_1    0.000
134 H_14412 140.292 162.719 -1.107 H 1 NIL_1    0.000
135 H_21851 141.086 164.580 3.555 H 1 NIL_1    0.000
136 H_21852 139.872 163.654 2.646 H 1 NIL_1    0.000
137 HH 143.701 149.527 -4.090 H 1 NIL_1    0.000
138 HH 140.078 151.631 2.838 H 1 NIL_1    0.000
139 HH 142.845 167.390 -2.966 H 1 NIL_1    0.000
140 HH 138.693 166.988 3.405 H 1 NIL_1    0.000
@<TRIPOS>BOND
1 1 2 2 
2 2 3 1 
3 3 5 1 
4 3 135 1 
5 3 136 1 
6 4 2 1 
7 4 140 1 
8 5 6 1 
9 5 7 1 
10 6 8 1 
11 8 12 1 
12 9 6 2 
13 10 14 1 
14 10 7 1 
15 10 133 1 
16 10 134 1 
17 11 7 1 
18 12 7 1 
19 13 8 1 
20 13 129 1 
21 13 130 1 
22 15 11 1 
23 15 14 1 
24 16 12 2 
25 17 13 1 
26 18 14 1 
27 19 15 1 
28 20 17 2 
29 21 17 1 
30 21 139 1 
31 22 18 2 
32 23 26 1 
33 23 18 1 
34 23 126 1 
35 23 127 1 
36 24 19 2 
37 25 19 1 
38 26 29 1 
39 27 25 1 
40 27 31 1 
41 27 124 1 
42 27 125 1 
43 28 25 1 
44 28 122 1 
45 28 123 1 
46 30 26 1 
47 30 120 1 
48 30 121 1 
49 32 28 1 
50 32 119 1 
51 33 29 2 
52 34 40 1 
53 34 29 1 
54 34 117 1 
55 34 118 1 
56 35 30 1 
57 35 116 1 
58 36 31 2 
59 37 31 1 
60 38 32 1 
61 38 113 1 
62 38 114 1 
63 38 115 1 
64 39 32 1 
65 39 110 1 
66 39 111 1 
67 39 112 1 
68 40 45 1 
69 41 35 1 
70 41 107 1 
71 41 108 1 
72 41 109 1 
73 42 35 1 
74 42 104 1 
75 42 105 1 
76 42 106 1 
77 43 37 1 
78 43 47 1 
79 43 102 1 
80 43 103 1 
81 44 37 1 
82 44 100 1 
83 44 101 1 
84 46 40 1 
85 46 98 1 
86 46 99 1 
87 48 44 1 
88 48 97 1 
89 49 45 2 
90 50 53 1 
91 50 45 1 
92 50 96 1 
93 51 46 1 
94 51 95 1 
95 52 47 2 
96 53 47 1 
97 54 48 1 
98 54 92 1 
99 54 93 1 
100 54 94 1 
101 55 48 1 
102 55 89 1 
103 55 90 1 
104 55 91 1 
105 56 60 1 
106 56 50 1 
107 56 88 1 
108 57 51 1 
109 57 84 1 
110 57 85 1 
111 57 86 1 
112 58 51 1 
113 58 82 1 
114 58 83 1 
115 59 53 1 
116 60 59 1 
117 61 60 1 
118 62 65 1 
119 62 60 1 
120 63 61 1 
121 64 61 2 
122 65 63 1 
123 66 62 1 
124 66 69 1 
125 67 63 1 
126 68 65 2 
127 70 67 1 
128 70 73 1 
129 70 74 2 
130 71 69 1 
131 71 138 1 
132 72 69 2 
133 73 137 1 
134 75 67 1 
135 76 67 1 
136 77 66 1 
137 78 66 1 
138 79 59 1 
139 80 59 1 
140 81 58 1 
141 87 56 1 
142 128 15 1 
143 131 11 1 
144 132 11 1 
@<TRIPOS>SUBSTRUCTURE
1 NIL_1 1 RESIDUE 1 A NIL 1
