@<TRIPOS>MOLECULE
NIL
104 108 1 0 0
POLYMER
CHARGES


@<TRIPOS>ATOM
1 O 160.488 169.695 1.3009 O.2 1 NIL_1    0.000
2 C_2332 159.755 170.611 0.982 C.2 1 NIL_1    0.000
3 N 158.397 170.626 0.999 N.am 1 NIL_1    0.000
4 N 160.159 171.825 0.558 N.am 1 NIL_1    0.000
5 C_2328 157.905 171.841 0.661 C.2 1 NIL_1    0.000
6 C_2347 157.518 169.501 1.384 C.3 1 NIL_1    0.000
7 C_2320 159.060 172.761 0.329 C.3 1 NIL_1    0.000
8 C_2349 161.545 172.263 0.324 C.3 1 NIL_1    0.000
9 O 156.725 172.136 0.625 O.2 1 NIL_1    0.000
10 C_2373 158.086 168.113 1.157 C.2 1 NIL_1    0.000
11 C_2318 158.951 173.282 -1.113 C.3 1 NIL_1    0.000
12 C_2322 159.073 174.012 1.232 C.3 1 NIL_1    0.000
13 C_2375 162.289 171.386 -0.660 C.2 1 NIL_1    0.000
14 OH 158.095 167.373 2.235 O.3 1 NIL_1    0.000
15 O 158.471 167.712 0.078 O.2 1 NIL_1    0.000
16 N 158.888 174.747 -1.074 N.am 1 NIL_1    0.000
17 C_1460 159.167 175.239 0.294 C.3 1 NIL_1    0.000
18 OH 162.017 171.666 -1.908 O.3 1 NIL_1    0.000
19 O 163.059 170.507 -0.331 O.2 1 NIL_1    0.000
20 C_1458 158.704 175.484 -2.201 C.2 1 NIL_1    0.000
21 C_1469 160.544 175.898 0.421 C.2 1 NIL_1    0.000
22 O 158.601 174.930 -3.281 O.2 1 NIL_1    0.000
23 C_1457 158.569 176.999 -2.086 C.3 1 NIL_1    0.000
24 O 161.440 175.659 -0.363 O.2 1 NIL_1    0.000
25 NH 160.808 176.729 1.460 N.am 1 NIL_1    0.000
26 NH 159.145 177.606 -3.296 N.am 1 NIL_1    0.000
27 C_2395 157.071 177.333 -1.917 C.3 1 NIL_1    0.000
28 C_1467 159.868 177.469 2.320 C.3 1 NIL_1    0.000
29 C_1455 159.655 178.849 -3.454 C.2 1 NIL_1    0.000
30 C_1468 160.669 178.464 3.150 C.2 1 NIL_1    0.000
31 C_2401 159.101 176.592 3.335 C.3 1 NIL_1    0.000
32 O 160.285 179.093 -4.464 O.2 1 NIL_1    0.000
33 C_1454 159.407 179.927 -2.402 C.3 1 NIL_1    0.000
34 O 161.582 178.093 3.861 O.2 1 NIL_1    0.000
35 NH 160.339 179.775 3.158 N.am 1 NIL_1    0.000
36 NH 160.702 180.256 -1.772 N.am 1 NIL_1    0.000
37 C_2397 158.688 181.087 -3.130 C.3 1 NIL_1    0.000
38 C_1465 159.496 180.517 2.208 C.3 1 NIL_1    0.000
39 C_1463 160.960 181.028 -0.685 C.2 1 NIL_1    0.000
40 C_1466 159.947 181.973 2.243 C.2 1 NIL_1    0.000
41 C_2399 157.996 180.459 2.564 C.3 1 NIL_1    0.000
42 O 162.002 180.856 -0.085 O.2 1 NIL_1    0.000
43 C_1462 160.018 182.171 -0.316 C.3 1 NIL_1    0.000
44 O 160.112 182.532 3.313 O.2 1 NIL_1    0.000
45 N 160.147 182.656 1.082 N.am 1 NIL_1    0.000
46 C_1443 160.360 183.370 -1.239 C.3 1 NIL_1    0.000
47 C_1441 160.592 184.054 1.085 C.3 1 NIL_1    0.000
48 C_1442 160.395 184.609 -0.329 C.3 1 NIL_1    0.000
49 C_1479 159.096 185.376 -0.427 C.2 1 NIL_1    0.000
50 N 161.317 185.681 -0.709 N.am 1 NIL_1    0.000
51 N 159.366 186.649 -0.801 N.am 1 NIL_1    0.000
52 O 157.986 184.929 -0.208 O.2 1 NIL_1    0.000
53 C_1481 160.698 186.846 -0.984 C.2 1 NIL_1    0.000
54 C_2185 162.774 185.448 -0.688 C.3 1 NIL_1    0.000
55 C_1513 158.284 187.643 -0.981 C.3 1 NIL_1    0.000
56 O 161.261 187.869 -1.327 O.2 1 NIL_1    0.000
57 C_2187 163.448 185.876 0.603 C.2 1 NIL_1    0.000
58 C_1514 158.707 189.090 -1.137 C.2 1 NIL_1    0.000
59 OH 164.639 185.355 0.745 O.3 1 NIL_1    0.000
60 O 162.940 186.598 1.439 O.2 1 NIL_1    0.000
61 O 158.863 189.631 -2.213 O.2 1 NIL_1    0.000
62 OH 158.875 189.706 0.003 O.3 1 NIL_1    0.000
63 H_15131 157.616 187.591 -0.115 H 1 NIL_1    0.000
64 H_15132 157.712 187.378 -1.874 H 1 NIL_1    0.000
65 H_21851 163.244 186.009 -1.501 H 1 NIL_1    0.000
66 H_21852 162.986 184.386 -0.835 H 1 NIL_1    0.000
67 H_14411 161.647 184.065 1.363 H 1 NIL_1    0.000
68 H_14412 160.024 184.643 1.812 H 1 NIL_1    0.000
69 H_14431 161.340 183.223 -1.700 H 1 NIL_1    0.000
70 H_14432 159.639 183.489 -2.047 H 1 NIL_1    0.000
71 H_1462 158.984 181.847 -0.453 H 1 NIL_1    0.000
72 H_23991 157.823 180.828 3.578 H 1 NIL_1    0.000
73 H_23992 157.618 179.438 2.504 H 1 NIL_1    0.000
74 H_23993 157.418 181.073 1.867 H 1 NIL_1    0.000
75 H_1465 159.639 180.104 1.212 H 1 NIL_1    0.000
76 H_23971 158.189 181.756 -2.429 H 1 NIL_1    0.000
77 H_23972 157.909 180.694 -3.789 H 1 NIL_1    0.000
78 H_23973 159.388 181.663 -3.741 H 1 NIL_1    0.000
79 H_1454 158.748 179.535 -1.628 H 1 NIL_1    0.000
80 H_24011 158.629 177.218 4.097 H 1 NIL_1    0.000
81 H_24012 159.776 175.891 3.837 H 1 NIL_1    0.000
82 H_24013 158.300 176.037 2.855 H 1 NIL_1    0.000
83 H_1467 159.160 178.001 1.684 H 1 NIL_1    0.000
84 H_23951 156.497 176.980 -2.778 H 1 NIL_1    0.000
85 H_23952 156.915 178.408 -1.823 H 1 NIL_1    0.000
86 H_23953 156.672 176.855 -1.020 H 1 NIL_1    0.000
87 H_1457 159.129 177.348 -1.217 H 1 NIL_1    0.000
88 H_1460 158.407 175.973 0.570 H 1 NIL_1    0.000
89 H_23221 159.898 173.978 1.951 H 1 NIL_1    0.000
90 H_23222 158.144 174.068 1.801 H 1 NIL_1    0.000
91 H_23181 159.823 172.993 -1.701 H 1 NIL_1    0.000
92 H_23182 158.056 172.887 -1.603 H 1 NIL_1    0.000
93 H_23491 162.092 172.258 1.270 H 1 NIL_1    0.000
94 H_23492 161.550 173.272 -0.080 H 1 NIL_1    0.000
95 H_23471 156.592 169.551 0.805 H 1 NIL_1    0.000
96 H_23472 157.269 169.606 2.444 H 1 NIL_1    0.000
97 HH 161.454 179.649 -2.066 H 1 NIL_1    0.000
98 HH 160.859 180.359 3.797 H 1 NIL_1    0.000
99 HH 159.285 176.963 -4.061 H 1 NIL_1    0.000
100 HH 161.762 177.049 1.534 H 1 NIL_1    0.000
101 HH 159.118 190.628 -0.199 H 1 NIL_1    0.000
102 HH 165.001 185.669 1.593 H 1 NIL_1    0.000
103 HH 162.523 171.048 -2.466 H 1 NIL_1    0.000
104 HH 158.449 166.501 1.985 H 1 NIL_1    0.000
@<TRIPOS>BOND
1 2 3 1 
2 2 1 2 
3 3 5 1 
4 3 6 1 
5 4 2 1 
6 4 7 1 
7 4 8 1 
8 5 7 1 
9 5 9 2 
10 6 95 1 
11 6 96 1 
12 7 11 1 
13 8 93 1 
14 8 94 1 
15 10 6 1 
16 11 16 1 
17 11 91 1 
18 11 92 1 
19 12 7 1 
20 12 17 1 
21 12 89 1 
22 12 90 1 
23 13 8 1 
24 14 10 1 
25 14 104 1 
26 15 10 2 
27 16 20 1 
28 17 16 1 
29 17 21 1 
30 17 88 1 
31 18 13 1 
32 18 103 1 
33 19 13 2 
34 22 20 2 
35 23 26 1 
36 23 20 1 
37 23 87 1 
38 24 21 2 
39 25 21 1 
40 25 100 1 
41 26 29 1 
42 26 99 1 
43 27 23 1 
44 27 84 1 
45 27 85 1 
46 27 86 1 
47 28 25 1 
48 28 30 1 
49 28 83 1 
50 31 28 1 
51 31 82 1 
52 32 29 2 
53 33 36 1 
54 33 29 1 
55 34 30 2 
56 35 30 1 
57 35 98 1 
58 36 39 1 
59 36 97 1 
60 37 33 1 
61 38 35 1 
62 38 40 1 
63 39 43 1 
64 40 45 1 
65 41 38 1 
66 42 39 2 
67 43 46 1 
68 43 45 1 
69 44 40 2 
70 45 47 1 
71 46 48 1 
72 48 47 1 
73 49 48 1 
74 50 53 1 
75 50 48 1 
76 51 49 1 
77 52 49 2 
78 53 51 1 
79 54 50 1 
80 55 51 1 
81 55 63 1 
82 56 53 2 
83 57 54 1 
84 58 55 1 
85 58 62 1 
86 59 57 1 
87 59 102 1 
88 60 57 2 
89 61 58 2 
90 62 101 1 
91 64 55 1 
92 65 54 1 
93 66 54 1 
94 67 47 1 
95 68 47 1 
96 69 46 1 
97 70 46 1 
98 71 43 1 
99 72 41 1 
100 73 41 1 
101 74 41 1 
102 75 38 1 
103 76 37 1 
104 77 37 1 
105 78 37 1 
106 79 33 1 
107 80 31 1 
108 81 31 1 
@<TRIPOS>SUBSTRUCTURE
1 NIL_1 1 RESIDUE 1 A NIL 1
