@<TRIPOS>MOLECULE
NIL
198 208 1 0 0
POLYMER
CHARGES


@<TRIPOS>ATOM
1 C_2493 140.506 166.401 -0.403858 C.3 1 NIL_1    0.000
2 C_1462 141.925 165.986 -0.897 C.3 1 NIL_1    0.000
3 C_2501 140.127 167.875 -0.710 C.3 1 NIL_1    0.000
4 NH 142.031 164.507 -0.963 N.am 1 NIL_1    0.000
5 C_1463 143.076 166.637 -0.113 C.2 1 NIL_1    0.000
6 C_2503 140.362 168.769 0.527 C.3 1 NIL_1    0.000
7 C_2505 138.654 167.994 -1.165 C.3 1 NIL_1    0.000
8 C_1466 141.825 163.632 0.060 C.2 1 NIL_1    0.000
9 O 143.364 166.226 0.995 O.2 1 NIL_1    0.000
10 N 143.775 167.699 -0.625 N.am 1 NIL_1    0.000
11 O 141.694 163.990 1.215 O.2 1 NIL_1    0.000
12 C_1465 141.709 162.163 -0.344 C.3 1 NIL_1    0.000
13 C_1454 143.647 168.390 -1.932 C.3 1 NIL_1    0.000
14 C_2313 144.789 168.434 0.163 C.3 1 NIL_1    0.000
15 NH 142.993 161.434 -0.455 N.am 1 NIL_1    0.000
16 C_2491 140.666 161.425 0.546 C.3 1 NIL_1    0.000
17 C_2317 144.797 169.411 -1.993 C.3 1 NIL_1    0.000
18 C_1455 143.684 167.575 -3.213 C.2 1 NIL_1    0.000
19 C_2315 145.073 169.802 -0.533 C.3 1 NIL_1    0.000
20 C_1468 144.129 161.602 0.268 C.2 1 NIL_1    0.000
21 C_2495 140.023 160.167 -0.107 C.3 1 NIL_1    0.000
22 O 143.153 167.994 -4.223 O.2 1 NIL_1    0.000
23 NH 144.323 166.382 -3.185 N.am 1 NIL_1    0.000
24 C_2323 144.008 170.829 -0.117 C.2 1 NIL_1    0.000
25 N 146.458 170.372 -0.400 N.am 1 NIL_1    0.000
26 O 144.231 162.406 1.174 O.2 1 NIL_1    0.000
27 C_1467 145.289 160.703 -0.154 C.3 1 NIL_1    0.000
28 C_2497 138.811 159.705 0.735 C.3 1 NIL_1    0.000
29 C_2499 141.016 158.993 -0.264 C.3 1 NIL_1    0.000
30 C_1457 144.421 165.495 -4.353 C.3 1 NIL_1    0.000
31 N 144.305 172.126 -0.342 N.am 1 NIL_1    0.000
32 O 142.960 170.531 0.418 O.2 1 NIL_1    0.000
33 C_2329 146.734 171.692 -0.621 C.2 1 NIL_1    0.000
34 C_2472 147.554 169.409 -0.149 C.3 1 NIL_1    0.000
35 C_1452 145.710 159.716 0.961 C.3 1 NIL_1    0.000
36 N 146.490 161.493 -0.472 N.am 1 NIL_1    0.000
37 C_1458 144.386 164.053 -3.889 C.2 1 NIL_1    0.000
38 C_2487 145.667 165.863 -5.212 C.3 1 NIL_1    0.000
39 C_2327 145.553 172.587 -0.944 C.3 1 NIL_1    0.000
40 C_2339 143.468 173.278 0.025 C.3 1 NIL_1    0.000
41 O 147.862 172.141 -0.552 O.2 1 NIL_1    0.000
42 C_2476 147.745 169.080 1.319 C.2 1 NIL_1    0.000
43 C_1451 147.259 159.665 0.917 C.3 1 NIL_1    0.000
44 C_1450 147.549 161.133 0.485 C.3 1 NIL_1    0.000
45 C_1469 146.653 162.348 -1.519 C.2 1 NIL_1    0.000
46 O 143.378 163.382 -3.989 O.2 1 NIL_1    0.000
47 NH 145.511 163.592 -3.300 N.am 1 NIL_1    0.000
48 C_2513 145.726 165.277 -6.654 C.3 1 NIL_1    0.000
49 C_2343 145.699 174.066 -0.543 C.3 1 NIL_1    0.000
50 C_2341 144.232 174.530 -0.453 C.3 1 NIL_1    0.000
51 OH 148.679 168.190 1.517 O.3 1 NIL_1    0.000
52 O 147.126 169.599 2.228 O.2 1 NIL_1    0.000
53 C_1471 147.682 158.725 -0.229 C.2 1 NIL_1    0.000
54 N 147.835 159.197 2.230 N.am 1 NIL_1    0.000
55 O 147.621 163.084 -1.573 O.2 1 NIL_1    0.000
56 C_1460 145.650 162.273 -2.670 C.3 1 NIL_1    0.000
57 C_2515 144.515 165.701 -7.512 C.3 1 NIL_1    0.000
58 C_2517 145.884 163.745 -6.699 C.3 1 NIL_1    0.000
59 C_2349 143.737 174.991 -1.809 C.2 1 NIL_1    0.000
60 N 143.996 175.759 0.303 N.am 1 NIL_1    0.000
61 O 147.880 159.099 -1.370 O.2 1 NIL_1    0.000
62 N 147.890 157.430 0.094 N.am 1 NIL_1    0.000
63 C_2201 147.983 157.873 2.537 C.2 1 NIL_1    0.000
64 C_2212 148.212 160.222 3.234 C.3 1 NIL_1    0.000
65 C_2489 146.126 161.172 -3.660 C.3 1 NIL_1    0.000
66 N 143.377 176.293 -1.715 N.am 1 NIL_1    0.000
67 O 143.664 174.313 -2.816 O.2 1 NIL_1    0.000
68 C_2353 143.511 176.765 -0.451 C.2 1 NIL_1    0.000
69 C_2439 144.254 175.786 1.753 C.3 1 NIL_1    0.000
70 C_2199 147.709 156.873 1.432 C.3 1 NIL_1    0.000
71 C_2225 148.440 156.409 -0.808 C.3 1 NIL_1    0.000
72 O 148.336 157.499 3.639 O.2 1 NIL_1    0.000
73 C_2216 147.058 160.647 4.123 C.2 1 NIL_1    0.000
74 C_2507 145.063 160.601 -4.638 C.3 1 NIL_1    0.000
75 C_2399 142.862 177.081 -2.852 C.3 1 NIL_1    0.000
76 O 143.237 177.882 -0.056 O.2 1 NIL_1    0.000
77 C_2452 143.005 175.953 2.599 C.2 1 NIL_1    0.000
78 C_2229 148.578 155.600 1.478 C.3 1 NIL_1    0.000
79 C_2227 148.548 155.111 0.016 C.3 1 NIL_1    0.000
80 O 146.138 159.920 4.437 O.2 1 NIL_1    0.000
81 OH 147.176 161.869 4.570 O.3 1 NIL_1    0.000
82 C_2509 143.842 159.986 -3.918 C.3 1 NIL_1    0.000
83 C_2511 145.727 159.523 -5.528 C.3 1 NIL_1    0.000
84 C_2401 143.460 178.469 -2.990 C.2 1 NIL_1    0.000
85 O 141.868 175.928 2.169 O.2 1 NIL_1    0.000
86 OH 143.276 176.089 3.870 O.3 1 NIL_1    0.000
87 N 149.605 154.185 -0.389 N.am 1 NIL_1    0.000
88 C_2235 147.351 154.222 -0.245 C.2 1 NIL_1    0.000
89 C_2423 144.773 178.631 -3.196 C.2 1 NIL_1    0.000
90 C_2431 142.683 179.555 -2.902 C.2 1 NIL_1    0.000
91 C_2239 149.142 152.989 -0.801 C.2 1 NIL_1    0.000
92 C_2461 151.017 154.607 -0.348 C.3 1 NIL_1    0.000
93 N 147.789 153.026 -0.704 N.am 1 NIL_1    0.000
94 O 146.183 154.527 -0.089 O.2 1 NIL_1    0.000
95 C_2425 145.299 179.851 -3.304 C.2 1 NIL_1    0.000
96 C_2429 143.206 180.777 -3.011 C.2 1 NIL_1    0.000
97 O 149.829 152.065 -1.190 O.2 1 NIL_1    0.000
98 C_2463 151.700 154.651 -1.703 C.2 1 NIL_1    0.000
99 C_2403 146.864 151.948 -1.116 C.3 1 NIL_1    0.000
100 C_2427 144.515 180.927 -3.211 C.2 1 NIL_1    0.000
101 O 151.125 154.594 -2.772 O.2 1 NIL_1    0.000
102 OH 152.998 154.770 -1.605 O.3 1 NIL_1    0.000
103 C_2405 147.382 150.522 -1.110 C.2 1 NIL_1    0.000
104 C_2407 147.466 149.835 0.035 C.2 1 NIL_1    0.000
105 C_2415 147.765 149.929 -2.247 C.2 1 NIL_1    0.000
106 C_2409 147.925 148.582 0.045 C.2 1 NIL_1    0.000
107 C_2413 148.227 148.677 -2.241 C.2 1 NIL_1    0.000
108 C_2411 148.306 148.002 -1.093 C.2 1 NIL_1    0.000
109 H_2411 148.682 146.982 -1.087 H 1 NIL_1    0.000
110 H_2413 148.539 148.207 -3.170 H 1 NIL_1    0.000
111 H_2409 147.989 148.034 0.982 H 1 NIL_1    0.000
112 H_2415 147.708 150.470 -3.189 H 1 NIL_1    0.000
113 H_2407 147.160 150.299 0.970 H 1 NIL_1    0.000
114 H_2427 144.942 181.922 -3.297 H 1 NIL_1    0.000
115 H_24031 146.502 152.194 -2.118 H 1 NIL_1    0.000
116 H_24032 145.996 151.989 -0.451 H 1 NIL_1    0.000
117 H_2429 142.564 181.651 -2.934 H 1 NIL_1    0.000
118 H_2425 146.367 179.972 -3.466 H 1 NIL_1    0.000
119 H_24611 151.573 153.896 0.272 H 1 NIL_1    0.000
120 H_24612 151.112 155.602 0.093 H 1 NIL_1    0.000
121 H_2431 141.613 179.447 -2.736 H 1 NIL_1    0.000
122 H_2423 145.422 177.761 -3.271 H 1 NIL_1    0.000
123 H_25111 146.206 158.756 -4.913 H 1 NIL_1    0.000
124 H_25112 146.492 159.967 -6.168 H 1 NIL_1    0.000
125 H_25113 144.992 159.032 -6.169 H 1 NIL_1    0.000
126 H_25091 144.153 159.243 -3.180 H 1 NIL_1    0.000
127 H_25092 143.185 159.494 -4.640 H 1 NIL_1    0.000
128 H_25093 143.248 160.751 -3.418 H 1 NIL_1    0.000
129 H_22291 149.599 155.863 1.770 H 1 NIL_1    0.000
130 H_22292 148.196 154.857 2.181 H 1 NIL_1    0.000
131 H_23991 141.777 177.152 -2.743 H 1 NIL_1    0.000
132 H_23992 143.059 176.534 -3.779 H 1 NIL_1    0.000
133 H_2507 144.702 161.394 -5.289 H 1 NIL_1    0.000
134 H_22251 149.428 156.741 -1.136 H 1 NIL_1    0.000
135 H_22252 147.790 156.275 -1.677 H 1 NIL_1    0.000
136 H_2199 146.656 156.594 1.532 H 1 NIL_1    0.000
137 H_24391 144.924 176.620 1.980 H 1 NIL_1    0.000
138 H_24392 144.734 174.857 2.071 H 1 NIL_1    0.000
139 H_24891 146.511 160.330 -3.087 H 1 NIL_1    0.000
140 H_24892 146.972 161.559 -4.237 H 1 NIL_1    0.000
141 H_22121 148.650 161.104 2.766 H 1 NIL_1    0.000
142 H_22122 148.984 159.823 3.899 H 1 NIL_1    0.000
143 H_25171 144.958 163.258 -6.399 H 1 NIL_1    0.000
144 H_25172 146.693 163.412 -6.046 H 1 NIL_1    0.000
145 H_25173 146.112 163.418 -7.716 H 1 NIL_1    0.000
146 H_25151 143.595 165.231 -7.158 H 1 NIL_1    0.000
147 H_25152 144.667 165.395 -8.549 H 1 NIL_1    0.000
148 H_25153 144.384 166.784 -7.491 H 1 NIL_1    0.000
149 H_1460 144.682 162.004 -2.259 H 1 NIL_1    0.000
150 H_23431 146.182 174.142 0.434 H 1 NIL_1    0.000
151 H_23432 146.278 174.640 -1.270 H 1 NIL_1    0.000
152 H_2513 146.619 165.700 -7.121 H 1 NIL_1    0.000
153 H_14501 147.463 161.834 1.318 H 1 NIL_1    0.000
154 H_14502 148.541 161.222 0.030 H 1 NIL_1    0.000
155 H_23391 143.348 173.285 1.111 H 1 NIL_1    0.000
156 H_23392 142.485 173.205 -0.449 H 1 NIL_1    0.000
157 H_2327 145.424 172.527 -2.027 H 1 NIL_1    0.000
158 H_24871 146.586 165.608 -4.677 H 1 NIL_1    0.000
159 H_24872 145.683 166.951 -5.316 H 1 NIL_1    0.000
160 H_14521 145.377 160.098 1.927 H 1 NIL_1    0.000
161 H_14522 145.257 158.732 0.817 H 1 NIL_1    0.000
162 H_24721 148.505 169.810 -0.506 H 1 NIL_1    0.000
163 H_24722 147.379 168.479 -0.697 H 1 NIL_1    0.000
164 H_1457 143.520 165.633 -4.954 H 1 NIL_1    0.000
165 H_24991 141.533 158.793 0.677 H 1 NIL_1    0.000
166 H_24992 141.760 159.204 -1.033 H 1 NIL_1    0.000
167 H_24993 140.489 158.085 -0.567 H 1 NIL_1    0.000
168 H_24971 138.053 160.488 0.781 H 1 NIL_1    0.000
169 H_24972 139.116 159.465 1.758 H 1 NIL_1    0.000
170 H_24973 138.347 158.820 0.294 H 1 NIL_1    0.000
171 H_1467 144.992 160.126 -1.037 H 1 NIL_1    0.000
172 H_2495 139.648 160.437 -1.097 H 1 NIL_1    0.000
173 H_23171 145.686 168.934 -2.415 H 1 NIL_1    0.000
174 H_23172 144.547 170.267 -2.625 H 1 NIL_1    0.000
175 H_24911 139.853 162.123 0.763 H 1 NIL_1    0.000
176 H_24912 141.115 161.167 1.508 H 1 NIL_1    0.000
177 H_23131 145.669 167.790 0.194 H 1 NIL_1    0.000
178 H_23132 144.440 168.586 1.188 H 1 NIL_1    0.000
179 H_1454 142.703 168.941 -1.930 H 1 NIL_1    0.000
180 H_1465 141.290 162.186 -1.355 H 1 NIL_1    0.000
181 H_25051 137.969 167.627 -0.398 H 1 NIL_1    0.000
182 H_25052 138.491 167.414 -2.076 H 1 NIL_1    0.000
183 H_25053 138.403 169.035 -1.380 H 1 NIL_1    0.000
184 H_25031 141.379 168.656 0.901 H 1 NIL_1    0.000
185 H_25032 139.685 168.501 1.340 H 1 NIL_1    0.000
186 H_25033 140.198 169.821 0.280 H 1 NIL_1    0.000
187 H_2501 140.737 168.236 -1.537 H 1 NIL_1    0.000
188 H_1462 141.988 166.320 -1.930 H 1 NIL_1    0.000
189 H_24931 140.396 166.205 0.665 H 1 NIL_1    0.000
190 H_24932 139.784 165.749 -0.903 H 1 NIL_1    0.000
191 HH 146.309 164.208 -3.245 H 1 NIL_1    0.000
192 HH 144.744 166.069 -2.322 H 1 NIL_1    0.000
193 HH 143.018 160.737 -1.184 H 1 NIL_1    0.000
194 HH 142.141 164.123 -1.889 H 1 NIL_1    0.000
195 HH 153.364 154.804 -2.508 H 1 NIL_1    0.000
196 HH 142.428 176.173 4.342 H 1 NIL_1    0.000
197 HH 146.409 162.043 5.144 H 1 NIL_1    0.000
198 HH 148.750 168.052 2.479 H 1 NIL_1    0.000
@<TRIPOS>BOND
1 1 2 1 
2 1 3 1 
3 1 189 1 
4 1 190 1 
5 2 4 1 
6 2 5 1 
7 3 187 1 
8 4 8 1 
9 6 3 1 
10 6 184 1 
11 6 185 1 
12 6 186 1 
13 7 3 1 
14 7 181 1 
15 7 182 1 
16 7 183 1 
17 9 5 2 
18 10 5 1 
19 11 8 2 
20 12 15 1 
21 12 8 1 
22 13 10 1 
23 13 18 1 
24 14 10 1 
25 15 20 1 
26 16 12 1 
27 16 175 1 
28 16 176 1 
29 17 19 1 
30 17 13 1 
31 19 14 1 
32 21 16 1 
33 21 29 1 
34 21 172 1 
35 22 18 2 
36 23 18 1 
37 24 19 1 
38 25 33 1 
39 25 19 1 
40 26 20 2 
41 27 35 1 
42 27 36 1 
43 27 20 1 
44 28 21 1 
45 28 168 1 
46 28 169 1 
47 28 170 1 
48 29 165 1 
49 29 166 1 
50 29 167 1 
51 30 23 1 
52 30 37 1 
53 31 24 1 
54 32 24 2 
55 33 39 1 
56 34 25 1 
57 34 162 1 
58 34 163 1 
59 35 43 1 
60 36 44 1 
61 38 30 1 
62 38 48 1 
63 38 158 1 
64 38 159 1 
65 39 31 1 
66 40 31 1 
67 41 33 2 
68 42 34 1 
69 43 44 1 
70 45 55 2 
71 45 56 1 
72 45 36 1 
73 46 37 2 
74 47 37 1 
75 48 152 1 
76 49 50 1 
77 49 39 1 
78 49 150 1 
79 49 151 1 
80 50 40 1 
81 51 42 1 
82 51 198 1 
83 52 42 2 
84 53 43 1 
85 54 43 1 
86 56 47 1 
87 57 48 1 
88 57 146 1 
89 57 147 1 
90 57 148 1 
91 58 48 1 
92 58 143 1 
93 58 144 1 
94 58 145 1 
95 59 50 1 
96 60 68 1 
97 60 50 1 
98 60 69 1 
99 61 53 2 
100 62 53 1 
101 63 54 1 
102 63 70 1 
103 64 54 1 
104 65 56 1 
105 65 74 1 
106 65 139 1 
107 65 140 1 
108 66 59 1 
109 67 59 2 
110 68 66 1 
111 69 137 1 
112 69 138 1 
113 70 62 1 
114 71 62 1 
115 72 63 2 
116 73 64 1 
117 74 83 1 
118 74 133 1 
119 75 66 1 
120 75 131 1 
121 75 132 1 
122 76 68 2 
123 77 69 1 
124 78 79 1 
125 78 70 1 
126 79 71 1 
127 80 73 2 
128 81 73 1 
129 82 74 1 
130 82 126 1 
131 82 127 1 
132 82 128 1 
133 83 123 1 
134 83 124 1 
135 83 125 1 
136 84 75 1 
137 84 89 2 
138 84 90 1 
139 85 77 2 
140 86 77 1 
141 86 196 1 
142 87 91 1 
143 87 79 1 
144 88 79 1 
145 89 122 1 
146 90 96 2 
147 90 121 1 
148 91 93 1 
149 92 87 1 
150 92 119 1 
151 92 120 1 
152 93 88 1 
153 94 88 2 
154 95 89 1 
155 95 118 1 
156 96 100 1 
157 96 117 1 
158 97 91 2 
159 98 92 1 
160 99 93 1 
161 99 115 1 
162 99 116 1 
163 100 95 2 
164 100 114 1 
165 101 98 2 
166 102 98 1 
167 102 195 1 
168 103 99 1 
169 103 104 2 
170 103 105 1 
171 104 113 1 
172 105 107 2 
173 105 112 1 
174 106 104 1 
175 106 111 1 
176 107 108 1 
177 107 110 1 
178 108 106 2 
179 108 109 1 
180 129 78 1 
181 130 78 1 
182 134 71 1 
183 135 71 1 
184 136 70 1 
185 141 64 1 
186 142 64 1 
187 149 56 1 
188 153 44 1 
189 154 44 1 
190 155 40 1 
191 156 40 1 
192 157 39 1 
193 160 35 1 
194 161 35 1 
195 164 30 1 
196 171 27 1 
197 173 17 1 
198 174 17 1 
199 177 14 1 
200 178 14 1 
201 179 13 1 
202 180 12 1 
203 188 2 1 
204 191 47 1 
205 192 23 1 
206 193 15 1 
207 194 4 1 
208 197 81 1 
@<TRIPOS>SUBSTRUCTURE
1 NIL_1 1 RESIDUE 1 A NIL 1
