@<TRIPOS>MOLECULE
NIL
92 96 1 0 0
POLYMER
CHARGES


@<TRIPOS>ATOM
1 C_1455 161.345 189.783 -0.233685 C.2 1 NIL_1    0.000
2 O 160.974 189.975 -1.373 O.2 1 NIL_1    0.000
3 C_1454 161.502 190.996 0.697 C.3 1 NIL_1    0.000
4 NH 161.601 188.491 0.129 N.am 1 NIL_1    0.000
5 NH 161.957 190.746 2.070 N.am 1 NIL_1    0.000
6 C_1457 162.025 187.935 1.425 C.3 1 NIL_1    0.000
7 C_1463 163.160 190.897 2.687 C.2 1 NIL_1    0.000
8 C_1458 162.414 186.468 1.381 C.2 1 NIL_1    0.000
9 O 163.291 190.194 3.668 O.2 1 NIL_1    0.000
10 C_1462 164.269 191.908 2.291 C.3 1 NIL_1    0.000
11 O 161.699 185.660 1.944 O.2 1 NIL_1    0.000
12 N 163.518 186.043 0.691 N.am 1 NIL_1    0.000
13 C_1443 164.408 192.297 0.803 C.3 1 NIL_1    0.000
14 N 165.647 191.506 2.713 N.am 1 NIL_1    0.000
15 C_1460 164.541 186.769 -0.098 C.3 1 NIL_1    0.000
16 C_2318 163.656 184.653 0.223 C.3 1 NIL_1    0.000
17 C_1442 165.875 192.736 0.656 C.3 1 NIL_1    0.000
18 C_1441 166.608 191.819 1.640 C.3 1 NIL_1    0.000
19 C_1466 166.011 191.101 3.960 C.2 1 NIL_1    0.000
20 C_2322 164.326 186.248 -1.525 C.3 1 NIL_1    0.000
21 C_1469 164.689 188.279 -0.008 C.2 1 NIL_1    0.000
22 C_2320 164.059 184.750 -1.270 C.3 1 NIL_1    0.000
23 C_1479 166.051 194.189 1.057 C.2 1 NIL_1    0.000
24 N 166.414 192.816 -0.708 N.am 1 NIL_1    0.000
25 O 165.356 191.431 4.930 O.2 1 NIL_1    0.000
26 C_1465 167.222 190.193 4.175 C.3 1 NIL_1    0.000
27 O 164.306 189.003 -0.904 O.2 1 NIL_1    0.000
28 NH 165.280 188.834 1.078 N.am 1 NIL_1    0.000
29 C_2328 165.297 183.937 -1.570 C.2 1 NIL_1    0.000
30 N 163.138 184.122 -2.216 N.am 1 NIL_1    0.000
31 N 166.583 194.865 0.012 N.am 1 NIL_1    0.000
32 O 165.780 194.672 2.140 O.2 1 NIL_1    0.000
33 C_1481 166.780 194.063 -1.063 C.2 1 NIL_1    0.000
34 C_2185 166.451 191.634 -1.586 C.3 1 NIL_1    0.000
35 NH 167.862 189.487 3.047 N.am 1 NIL_1    0.000
36 C_1467 165.891 188.169 2.241 C.3 1 NIL_1    0.000
37 N 165.006 183.048 -2.548 N.am 1 NIL_1    0.000
38 O 166.384 184.072 -1.041 O.2 1 NIL_1    0.000
39 C_2332 163.717 183.156 -2.959 C.2 1 NIL_1    0.000
40 C_2349 161.744 184.600 -2.295 C.3 1 NIL_1    0.000
41 C_1513 166.826 196.320 0.021 C.3 1 NIL_1    0.000
42 O 167.203 194.399 -2.152 O.2 1 NIL_1    0.000
43 C_2187 167.707 190.807 -1.420 C.2 1 NIL_1    0.000
44 C_1468 167.378 188.478 2.278 C.2 1 NIL_1    0.000
45 C_2347 166.039 182.202 -3.176 C.3 1 NIL_1    0.000
46 O 163.179 182.527 -3.851 O.2 1 NIL_1    0.000
47 C_2375 160.724 183.481 -2.321 C.2 1 NIL_1    0.000
48 C_1514 168.162 196.729 -0.571 C.2 1 NIL_1    0.000
49 OH 168.788 191.424 -1.818 O.3 1 NIL_1    0.000
50 O 167.714 189.678 -0.975 O.2 1 NIL_1    0.000
51 O 168.146 187.857 1.570 O.2 1 NIL_1    0.000
52 C_2373 165.571 180.850 -3.680 C.2 1 NIL_1    0.000
53 OH 160.633 182.836 -1.188 O.3 1 NIL_1    0.000
54 O 160.089 183.174 -3.309 O.2 1 NIL_1    0.000
55 O 169.226 196.252 -0.230 O.2 1 NIL_1    0.000
56 OH 168.061 197.639 -1.504 O.3 1 NIL_1    0.000
57 OH 166.058 180.549 -4.855 O.3 1 NIL_1    0.000
58 O 164.878 180.089 -3.033 O.2 1 NIL_1    0.000
59 H_23471 166.844 182.006 -2.462 H 1 NIL_1    0.000
60 H_23472 166.459 182.754 -4.022 H 1 NIL_1    0.000
61 H_15131 166.796 196.710 1.043 H 1 NIL_1    0.000
62 H_15132 166.034 196.800 -0.560 H 1 NIL_1    0.000
63 H_23491 161.617 185.187 -3.209 H 1 NIL_1    0.000
64 H_23492 161.514 185.235 -1.436 H 1 NIL_1    0.000
65 H_14671 165.775 187.085 2.199 H 1 NIL_1    0.000
66 H_14672 165.420 188.532 3.155 H 1 NIL_1    0.000
67 H_21851 166.402 191.956 -2.630 H 1 NIL_1    0.000
68 H_21852 165.599 190.988 -1.388 H 1 NIL_1    0.000
69 H_14651 167.988 190.822 4.635 H 1 NIL_1    0.000
70 H_14652 166.921 189.443 4.912 H 1 NIL_1    0.000
71 H_23221 163.450 186.731 -1.970 H 1 NIL_1    0.000
72 H_23222 165.191 186.424 -2.169 H 1 NIL_1    0.000
73 H_14411 166.894 190.900 1.134 H 1 NIL_1    0.000
74 H_14412 167.500 192.302 2.048 H 1 NIL_1    0.000
75 H_23181 162.722 184.098 0.340 H 1 NIL_1    0.000
76 H_23182 164.439 184.165 0.811 H 1 NIL_1    0.000
77 H_1460 165.517 186.388 0.219 H 1 NIL_1    0.000
78 H_14431 164.226 191.420 0.186 H 1 NIL_1    0.000
79 H_14432 163.721 193.097 0.517 H 1 NIL_1    0.000
80 H_1462 164.020 192.818 2.841 H 1 NIL_1    0.000
81 H_14571 161.203 188.039 2.139 H 1 NIL_1    0.000
82 H_14572 162.891 188.462 1.810 H 1 NIL_1    0.000
83 H_14541 162.112 191.726 0.177 H 1 NIL_1    0.000
84 H_14542 160.503 191.431 0.777 H 1 NIL_1    0.000
85 HH 168.841 189.704 2.929 H 1 NIL_1    0.000
86 HH 165.347 189.841 1.087 H 1 NIL_1    0.000
87 HH 161.318 190.145 2.567 H 1 NIL_1    0.000
88 HH 161.469 187.796 -0.590 H 1 NIL_1    0.000
89 HH 165.750 179.653 -5.080 H 1 NIL_1    0.000
90 HH 168.962 197.833 -1.821 H 1 NIL_1    0.000
91 HH 161.261 183.247 -0.568 H 1 NIL_1    0.000
92 HH 169.539 190.823 -1.666 H 1 NIL_1    0.000
@<TRIPOS>BOND
1 2 1 2 
2 3 5 1 
3 3 1 1 
4 4 1 1 
5 5 7 1 
6 6 4 1 
7 6 8 1 
8 7 10 1 
9 9 7 2 
10 10 13 1 
11 10 14 1 
12 11 8 2 
13 12 8 1 
14 12 16 1 
15 13 17 1 
16 14 18 1 
17 15 12 1 
18 15 20 1 
19 15 21 1 
20 17 18 1 
21 19 14 1 
22 20 22 1 
23 22 16 1 
24 23 17 1 
25 24 33 1 
26 24 17 1 
27 25 19 2 
28 26 35 1 
29 26 19 1 
30 27 21 2 
31 28 21 1 
32 29 22 1 
33 30 39 1 
34 30 22 1 
35 31 23 1 
36 32 23 2 
37 33 31 1 
38 34 24 1 
39 35 44 1 
40 36 28 1 
41 36 44 1 
42 37 29 1 
43 38 29 2 
44 39 37 1 
45 40 30 1 
46 40 63 1 
47 40 64 1 
48 41 31 1 
49 42 33 2 
50 43 34 1 
51 45 37 1 
52 46 39 2 
53 47 40 1 
54 48 41 1 
55 49 43 1 
56 50 43 2 
57 51 44 2 
58 52 45 1 
59 53 47 1 
60 54 47 2 
61 55 48 2 
62 56 48 1 
63 57 52 1 
64 58 52 2 
65 59 45 1 
66 60 45 1 
67 61 41 1 
68 62 41 1 
69 65 36 1 
70 66 36 1 
71 67 34 1 
72 68 34 1 
73 69 26 1 
74 70 26 1 
75 71 20 1 
76 72 20 1 
77 73 18 1 
78 74 18 1 
79 75 16 1 
80 76 16 1 
81 77 15 1 
82 78 13 1 
83 79 13 1 
84 80 10 1 
85 81 6 1 
86 82 6 1 
87 83 3 1 
88 84 3 1 
89 85 35 1 
90 86 28 1 
91 87 5 1 
92 88 4 1 
93 89 57 1 
94 90 56 1 
95 91 53 1 
96 92 49 1 
@<TRIPOS>SUBSTRUCTURE
1 NIL_1 1 RESIDUE 1 A NIL 1
