@<TRIPOS>MOLECULE
NIL
160 171 1 0 0
POLYMER
CHARGES


@<TRIPOS>ATOM
1 C_2187 154.268 185.215 2.59156 C.2 1 NIL_1    0.000
2 C_2185 153.411 184.380 1.660 C.3 1 NIL_1    0.000
3 OH 153.576 186.075 3.294 O.3 1 NIL_1    0.000
4 O 155.483 185.200 2.583 O.2 1 NIL_1    0.000
5 N 153.783 184.560 0.248 N.am 1 NIL_1    0.000
6 C_1481 153.726 185.718 -0.432 C.2 1 NIL_1    0.000
7 C_1442 154.201 183.417 -0.572 C.3 1 NIL_1    0.000
8 N 154.155 185.468 -1.691 N.am 1 NIL_1    0.000
9 O 153.350 186.787 0.011 O.2 1 NIL_1    0.000
10 C_1441 153.099 182.362 -0.760 C.3 1 NIL_1    0.000
11 C_1443 155.445 182.647 -0.080 C.3 1 NIL_1    0.000
12 C_1479 154.462 184.161 -1.868 C.2 1 NIL_1    0.000
13 C_1513 154.257 186.499 -2.740 C.3 1 NIL_1    0.000
14 N 153.612 181.018 -0.332 N.am 1 NIL_1    0.000
15 C_1462 155.003 181.180 0.141 C.3 1 NIL_1    0.000
16 O 154.866 183.669 -2.905 O.2 1 NIL_1    0.000
17 C_1514 155.079 187.694 -2.293 C.2 1 NIL_1    0.000
18 C_1466 152.983 179.795 -0.180 C.2 1 NIL_1    0.000
19 C_1463 155.217 180.788 1.604 C.2 1 NIL_1    0.000
20 C_2156 154.508 188.893 -2.129 C.2 1 NIL_1    0.000
21 C_2164 156.383 187.559 -2.028 C.2 1 NIL_1    0.000
22 O 152.269 180.089 -1.125 O.2 1 NIL_1    0.000
23 C_1465 152.044 178.569 -0.215 C.3 1 NIL_1    0.000
24 O 154.455 181.155 2.476 O.2 1 NIL_1    0.000
25 NH 156.317 180.072 1.957 N.am 1 NIL_1    0.000
26 C_2158 155.222 189.934 -1.700 C.2 1 NIL_1    0.000
27 C_2162 157.101 188.599 -1.599 C.2 1 NIL_1    0.000
28 NH 152.389 177.692 0.906 N.am 1 NIL_1    0.000
29 C_1454 157.115 179.170 1.103 C.3 1 NIL_1    0.000
30 C_2160 156.520 189.787 -1.431 C.2 1 NIL_1    0.000
31 C_1468 152.077 176.384 1.062 C.2 1 NIL_1    0.000
32 C_1455 156.396 177.852 0.855 C.2 1 NIL_1    0.000
33 O 152.476 175.814 2.057 O.2 1 NIL_1    0.000
34 C_1467 151.226 175.689 -0.003 C.3 1 NIL_1    0.000
35 O 155.235 177.711 1.179 O.2 1 NIL_1    0.000
36 N 157.073 176.827 0.269 N.am 1 NIL_1    0.000
37 C_1452 149.731 176.035 0.172 C.3 1 NIL_1    0.000
38 N 151.349 174.216 -0.025 N.am 1 NIL_1    0.000
39 C_1438 158.457 176.864 -0.226 C.3 1 NIL_1    0.000
40 C_1457 156.447 175.541 -0.102 C.3 1 NIL_1    0.000
41 C_1451 148.960 174.704 0.415 C.3 1 NIL_1    0.000
42 C_1450 150.024 173.604 0.157 C.3 1 NIL_1    0.000
43 C_1469 152.470 173.473 -0.261 C.2 1 NIL_1    0.000
44 C_1439 158.867 175.407 -0.526 C.3 1 NIL_1    0.000
45 C_1440 157.545 174.626 -0.680 C.3 1 NIL_1    0.000
46 C_1458 155.721 174.839 1.044 C.2 1 NIL_1    0.000
47 C_1471 147.895 174.546 -0.684 C.2 1 NIL_1    0.000
48 N 148.433 174.575 1.816 N.am 1 NIL_1    0.000
49 O 152.415 172.259 -0.288 O.2 1 NIL_1    0.000
50 C_1460 153.808 174.168 -0.464 C.3 1 NIL_1    0.000
51 C_1475 159.723 175.262 -1.764 C.2 1 NIL_1    0.000
52 N 159.787 174.809 0.446 N.am 1 NIL_1    0.000
53 O 156.148 174.843 2.181 O.2 1 NIL_1    0.000
54 NH 154.583 174.159 0.782 N.am 1 NIL_1    0.000
55 O 148.178 174.659 -1.864 O.2 1 NIL_1    0.000
56 N 146.629 174.236 -0.323 N.am 1 NIL_1    0.000
57 C_2201 147.173 174.177 2.140 C.2 1 NIL_1    0.000
58 C_2212 149.428 174.774 2.900 C.3 1 NIL_1    0.000
59 N 160.850 174.585 -1.437 N.am 1 NIL_1    0.000
60 O 159.441 175.668 -2.876 O.2 1 NIL_1    0.000
61 C_1477 160.897 174.293 -0.114 C.2 1 NIL_1    0.000
62 C_2172 159.507 174.884 1.890 C.3 1 NIL_1    0.000
63 C_2199 146.154 174.026 1.037 C.3 1 NIL_1    0.000
64 C_2225 145.624 173.652 -1.225 C.3 1 NIL_1    0.000
65 O 146.842 173.963 3.291 O.2 1 NIL_1    0.000
66 C_2216 149.360 176.140 3.558 C.2 1 NIL_1    0.000
67 C_1504 161.867 174.175 -2.424 C.3 1 NIL_1    0.000
68 O 161.772 173.691 0.478 O.2 1 NIL_1    0.000
69 C_2176 160.520 175.707 2.661 C.2 1 NIL_1    0.000
70 C_2229 145.495 172.643 1.016 C.3 1 NIL_1    0.000
71 C_2227 144.884 172.570 -0.400 C.3 1 NIL_1    0.000
72 O 148.462 176.942 3.390 O.2 1 NIL_1    0.000
73 OH 150.399 176.389 4.311 O.3 1 NIL_1    0.000
74 C_1505 163.308 174.248 -1.951 C.2 1 NIL_1    0.000
75 OH 160.586 175.368 3.920 O.3 1 NIL_1    0.000
76 O 161.210 176.583 2.178 O.2 1 NIL_1    0.000
77 C_2241 143.393 172.818 -0.355 C.2 1 NIL_1    0.000
78 N 144.875 171.238 -1.005 N.am 1 NIL_1    0.000
79 C_2140 163.886 175.431 -1.711 C.2 1 NIL_1    0.000
80 C_2148 164.013 173.128 -1.755 C.2 1 NIL_1    0.000
81 N 142.765 171.731 -0.862 N.am 1 NIL_1    0.000
82 O 142.846 173.817 0.073 O.2 1 NIL_1    0.000
83 C_2237 143.636 170.779 -1.267 C.2 1 NIL_1    0.000
84 C_2267 146.145 170.558 -1.301 C.3 1 NIL_1    0.000
85 C_2142 165.149 175.489 -1.279 C.2 1 NIL_1    0.000
86 C_2146 165.274 173.185 -1.318 C.2 1 NIL_1    0.000
87 C_2261 141.303 171.593 -0.967 C.3 1 NIL_1    0.000
88 O 143.357 169.711 -1.776 O.2 1 NIL_1    0.000
89 C_2271 146.314 169.280 -0.505 C.2 1 NIL_1    0.000
90 C_2144 165.842 174.366 -1.082 C.2 1 NIL_1    0.000
91 C_2263 140.730 170.444 -0.155 C.2 1 NIL_1    0.000
92 O 146.206 169.216 0.703 O.2 1 NIL_1    0.000
93 OH 146.500 168.224 -1.251 O.3 1 NIL_1    0.000
94 C_2280 139.890 169.574 -0.725 C.2 1 NIL_1    0.000
95 C_2288 141.048 170.282 1.136 C.2 1 NIL_1    0.000
96 C_2282 139.376 168.562 -0.024 C.2 1 NIL_1    0.000
97 C_2286 140.538 169.269 1.839 C.2 1 NIL_1    0.000
98 C_2284 139.701 168.409 1.260 C.2 1 NIL_1    0.000
99 H_2284 139.283 167.584 1.832 H 1 NIL_1    0.000
100 H_2286 140.805 169.146 2.886 H 1 NIL_1    0.000
101 H_2282 138.693 167.863 -0.500 H 1 NIL_1    0.000
102 H_2288 141.728 170.977 1.624 H 1 NIL_1    0.000
103 H_2280 139.615 169.689 -1.772 H 1 NIL_1    0.000
104 H_2144 166.871 174.415 -0.727 H 1 NIL_1    0.000
105 H_22611 141.065 171.450 -2.025 H 1 NIL_1    0.000
106 H_22612 140.825 172.524 -0.650 H 1 NIL_1    0.000
107 H_2146 165.837 172.268 -1.152 H 1 NIL_1    0.000
108 H_2142 165.612 176.454 -1.091 H 1 NIL_1    0.000
109 H_22671 146.997 171.206 -1.074 H 1 NIL_1    0.000
110 H_22672 146.168 170.309 -2.366 H 1 NIL_1    0.000
111 H_2148 163.559 172.156 -1.945 H 1 NIL_1    0.000
112 H_2140 163.324 176.351 -1.862 H 1 NIL_1    0.000
113 H_22291 146.262 171.877 1.150 H 1 NIL_1    0.000
114 H_22292 144.750 172.532 1.808 H 1 NIL_1    0.000
115 H_15041 161.766 174.799 -3.315 H 1 NIL_1    0.000
116 H_15042 161.633 173.150 -2.726 H 1 NIL_1    0.000
117 H_22251 146.103 173.211 -2.104 H 1 NIL_1    0.000
118 H_22252 144.935 174.436 -1.550 H 1 NIL_1    0.000
119 H_2199 145.389 174.783 1.230 H 1 NIL_1    0.000
120 H_21721 159.509 173.869 2.298 H 1 NIL_1    0.000
121 H_21722 158.535 175.338 2.073 H 1 NIL_1    0.000
122 H_22121 150.439 174.626 2.529 H 1 NIL_1    0.000
123 H_22122 149.274 174.034 3.690 H 1 NIL_1    0.000
124 H_14601 154.356 173.619 -1.235 H 1 NIL_1    0.000
125 H_14602 153.647 175.193 -0.807 H 1 NIL_1    0.000
126 H_14401 157.591 173.661 -0.166 H 1 NIL_1    0.000
127 H_14402 157.321 174.424 -1.730 H 1 NIL_1    0.000
128 H_14501 150.065 172.901 0.994 H 1 NIL_1    0.000
129 H_14502 149.787 173.029 -0.743 H 1 NIL_1    0.000
130 H_1457 155.727 175.758 -0.893 H 1 NIL_1    0.000
131 H_14381 159.127 177.313 0.510 H 1 NIL_1    0.000
132 H_14382 158.474 177.459 -1.143 H 1 NIL_1    0.000
133 H_14521 149.574 176.754 0.976 H 1 NIL_1    0.000
134 H_14522 149.386 176.541 -0.732 H 1 NIL_1    0.000
135 H_1467 151.551 176.047 -0.982 H 1 NIL_1    0.000
136 H_2160 157.102 190.634 -1.075 H 1 NIL_1    0.000
137 H_14541 158.051 178.947 1.622 H 1 NIL_1    0.000
138 H_14542 157.352 179.631 0.141 H 1 NIL_1    0.000
139 H_2162 158.159 188.476 -1.380 H 1 NIL_1    0.000
140 H_2158 154.746 190.902 -1.563 H 1 NIL_1    0.000
141 H_14651 150.981 178.829 -0.072 H 1 NIL_1    0.000
142 H_14652 152.199 177.986 -1.137 H 1 NIL_1    0.000
143 H_2164 156.866 186.593 -2.153 H 1 NIL_1    0.000
144 H_2156 153.448 189.026 -2.336 H 1 NIL_1    0.000
145 H_1462 155.619 180.537 -0.487 H 1 NIL_1    0.000
146 H_15131 153.244 186.817 -3.004 H 1 NIL_1    0.000
147 H_15132 154.710 186.067 -3.635 H 1 NIL_1    0.000
148 H_14431 155.843 183.082 0.839 H 1 NIL_1    0.000
149 H_14432 156.245 182.678 -0.823 H 1 NIL_1    0.000
150 H_14411 152.222 182.615 -0.158 H 1 NIL_1    0.000
151 H_14412 152.805 182.329 -1.814 H 1 NIL_1    0.000
152 H_21851 153.510 183.337 1.957 H 1 NIL_1    0.000
153 H_21852 152.367 184.684 1.788 H 1 NIL_1    0.000
154 HH 154.165 173.653 1.547 H 1 NIL_1    0.000
155 HH 152.955 178.118 1.623 H 1 NIL_1    0.000
156 HH 156.483 179.962 2.945 H 1 NIL_1    0.000
157 HH 146.545 167.454 -0.655 H 1 NIL_1    0.000
158 HH 161.271 175.923 4.330 H 1 NIL_1    0.000
159 HH 150.295 177.291 4.665 H 1 NIL_1    0.000
160 HH 154.208 186.625 3.791 H 1 NIL_1    0.000
@<TRIPOS>BOND
1 1 2 1 
2 2 152 1 
3 2 153 1 
4 3 1 1 
5 3 160 1 
6 4 1 2 
7 5 6 1 
8 5 2 1 
9 6 8 1 
10 6 9 2 
11 7 10 1 
12 7 12 1 
13 7 5 1 
14 8 12 1 
15 8 13 1 
16 11 7 1 
17 11 148 1 
18 11 149 1 
19 12 16 2 
20 13 146 1 
21 13 147 1 
22 14 10 1 
23 15 11 1 
24 15 14 1 
25 15 145 1 
26 17 13 1 
27 17 21 1 
28 18 14 1 
29 18 23 1 
30 19 25 1 
31 19 15 1 
32 20 17 2 
33 20 144 1 
34 21 143 1 
35 22 18 2 
36 23 28 1 
37 23 141 1 
38 23 142 1 
39 24 19 2 
40 25 156 1 
41 26 20 1 
42 26 140 1 
43 27 30 1 
44 27 21 2 
45 27 139 1 
46 28 155 1 
47 29 25 1 
48 29 137 1 
49 29 138 1 
50 30 26 2 
51 30 136 1 
52 31 28 1 
53 31 34 1 
54 32 29 1 
55 32 36 1 
56 33 31 2 
57 34 37 1 
58 34 135 1 
59 35 32 2 
60 36 39 1 
61 37 133 1 
62 37 134 1 
63 38 42 1 
64 38 34 1 
65 38 43 1 
66 40 45 1 
67 40 36 1 
68 41 42 1 
69 41 37 1 
70 41 47 1 
71 41 48 1 
72 42 128 1 
73 42 129 1 
74 43 50 1 
75 44 39 1 
76 45 44 1 
77 46 40 1 
78 46 54 1 
79 47 55 2 
80 47 56 1 
81 48 57 1 
82 48 58 1 
83 49 43 2 
84 50 54 1 
85 50 124 1 
86 50 125 1 
87 51 44 1 
88 51 60 2 
89 52 61 1 
90 52 44 1 
91 52 62 1 
92 53 46 2 
93 54 154 1 
94 57 63 1 
95 58 122 1 
96 58 123 1 
97 59 51 1 
98 59 67 1 
99 61 59 1 
100 61 68 2 
101 62 120 1 
102 62 121 1 
103 63 56 1 
104 63 70 1 
105 63 119 1 
106 64 56 1 
107 64 71 1 
108 64 117 1 
109 64 118 1 
110 65 57 2 
111 66 58 1 
112 67 115 1 
113 67 116 1 
114 69 62 1 
115 70 71 1 
116 70 113 1 
117 70 114 1 
118 72 66 2 
119 73 66 1 
120 73 159 1 
121 74 67 1 
122 75 69 1 
123 75 158 1 
124 76 69 2 
125 77 81 1 
126 77 71 1 
127 78 71 1 
128 79 74 2 
129 79 112 1 
130 80 86 2 
131 80 74 1 
132 80 111 1 
133 81 83 1 
134 82 77 2 
135 83 78 1 
136 84 78 1 
137 84 109 1 
138 84 110 1 
139 85 79 1 
140 85 108 1 
141 86 90 1 
142 86 107 1 
143 87 81 1 
144 87 105 1 
145 87 106 1 
146 88 83 2 
147 89 84 1 
148 90 85 2 
149 90 104 1 
150 91 87 1 
151 91 95 1 
152 92 89 2 
153 93 89 1 
154 93 157 1 
155 94 91 2 
156 94 103 1 
157 96 94 1 
158 96 101 1 
159 97 98 1 
160 97 95 2 
161 97 100 1 
162 98 96 2 
163 98 99 1 
164 102 95 1 
165 126 45 1 
166 127 45 1 
167 130 40 1 
168 131 39 1 
169 132 39 1 
170 150 10 1 
171 151 10 1 
@<TRIPOS>SUBSTRUCTURE
1 NIL_1 1 RESIDUE 1 A NIL 1
