@<TRIPOS>MOLECULE
NIL
104 108 1 0 0
POLYMER
CHARGES


@<TRIPOS>ATOM
1 C_1460 157.796 175.138 -0.687282 C.3 1 NIL_1    0.000
2 N 158.784 174.331 0.062 N.am 1 NIL_1    0.000
3 C_2322 157.618 174.493 -2.079 C.3 1 NIL_1    0.000
4 C_1469 156.447 175.300 0.019 C.2 1 NIL_1    0.000
5 C_1458 159.340 174.623 1.271 C.2 1 NIL_1    0.000
6 C_2318 159.199 173.178 -0.747 C.3 1 NIL_1    0.000
7 C_2320 158.314 173.122 -2.007 C.3 1 NIL_1    0.000
8 O 156.150 174.607 0.974 O.2 1 NIL_1    0.000
9 N 155.566 176.214 -0.482 N.am 1 NIL_1    0.000
10 O 160.017 173.800 1.856 O.2 1 NIL_1    0.000
11 C_1457 159.182 176.028 1.848 C.3 1 NIL_1    0.000
12 C_2328 159.125 172.854 -3.256 C.2 1 NIL_1    0.000
13 N 157.414 171.966 -2.080 N.am 1 NIL_1    0.000
14 C_1467 155.926 177.192 -1.541 C.3 1 NIL_1    0.000
15 C_2403 154.141 176.209 -0.086 C.3 1 NIL_1    0.000
16 N 159.650 177.141 0.984 N.am 1 NIL_1    0.000
17 N 158.665 171.726 -3.847 N.am 1 NIL_1    0.000
18 O 160.041 173.540 -3.672 O.2 1 NIL_1    0.000
19 C_2332 157.623 171.191 -3.161 C.2 1 NIL_1    0.000
20 C_2349 156.355 171.772 -1.073 C.3 1 NIL_1    0.000
21 C_1468 155.089 178.452 -1.719 C.2 1 NIL_1    0.000
22 C_1455 159.033 178.355 0.981 C.2 1 NIL_1    0.000
23 C_2409 160.881 176.846 0.221 C.3 1 NIL_1    0.000
24 C_2347 159.198 171.218 -5.129 C.3 1 NIL_1    0.000
25 O 156.977 170.204 -3.453 O.2 1 NIL_1    0.000
26 C_2375 156.840 171.040 0.162 C.2 1 NIL_1    0.000
27 O 154.524 178.633 -2.781 O.2 1 NIL_1    0.000
28 N 155.019 179.376 -0.716 N.am 1 NIL_1    0.000
29 O 158.229 178.645 1.845 O.2 1 NIL_1    0.000
30 C_1454 159.387 179.318 -0.150 C.3 1 NIL_1    0.000
31 C_2373 159.161 169.712 -5.288 C.2 1 NIL_1    0.000
32 OH 156.379 171.542 1.277 O.3 1 NIL_1    0.000
33 O 157.624 170.112 0.135 O.2 1 NIL_1    0.000
34 C_1465 154.310 180.657 -0.905 C.3 1 NIL_1    0.000
35 C_2405 155.433 179.166 0.685 C.3 1 NIL_1    0.000
36 N 158.429 180.435 -0.370 N.am 1 NIL_1    0.000
37 OH 160.105 169.102 -4.622 O.3 1 NIL_1    0.000
38 O 158.323 169.122 -5.941 O.2 1 NIL_1    0.000
39 C_1466 154.935 181.888 -0.268 C.2 1 NIL_1    0.000
40 C_1463 157.769 180.598 -1.563 C.2 1 NIL_1    0.000
41 C_2407 158.510 181.446 0.704 C.3 1 NIL_1    0.000
42 O 154.405 182.409 0.695 O.2 1 NIL_1    0.000
43 N 156.066 182.421 -0.813 N.am 1 NIL_1    0.000
44 O 157.848 179.749 -2.431 O.2 1 NIL_1    0.000
45 C_1462 156.934 181.848 -1.872 C.3 1 NIL_1    0.000
46 C_1441 156.435 183.830 -0.596 C.3 1 NIL_1    0.000
47 C_1443 157.891 182.963 -2.345 C.3 1 NIL_1    0.000
48 C_1442 157.280 184.264 -1.807 C.3 1 NIL_1    0.000
49 C_1479 156.424 184.904 -2.879 C.2 1 NIL_1    0.000
50 N 158.219 185.367 -1.584 N.am 1 NIL_1    0.000
51 N 156.927 186.130 -3.158 N.am 1 NIL_1    0.000
52 O 155.453 184.402 -3.415 O.2 1 NIL_1    0.000
53 C_1481 158.013 186.419 -2.398 C.2 1 NIL_1    0.000
54 C_2185 159.289 185.248 -0.581 C.3 1 NIL_1    0.000
55 C_1513 156.429 186.964 -4.267 C.3 1 NIL_1    0.000
56 O 158.698 187.423 -2.449 O.2 1 NIL_1    0.000
57 C_2187 160.609 184.774 -1.157 C.2 1 NIL_1    0.000
58 C_1514 156.400 188.454 -3.984 C.2 1 NIL_1    0.000
59 OH 161.420 184.311 -0.245 O.3 1 NIL_1    0.000
60 O 160.883 184.774 -2.340 O.2 1 NIL_1    0.000
61 O 155.993 188.939 -2.946 O.2 1 NIL_1    0.000
62 OH 156.873 189.175 -4.966 O.3 1 NIL_1    0.000
63 H_15131 155.410 186.672 -4.536 H 1 NIL_1    0.000
64 H_15132 157.077 186.797 -5.132 H 1 NIL_1    0.000
65 H_21851 158.997 184.549 0.205 H 1 NIL_1    0.000
66 H_21852 159.464 186.223 -0.119 H 1 NIL_1    0.000
67 H_14431 158.884 182.810 -1.921 H 1 NIL_1    0.000
68 H_14432 157.996 182.970 -3.432 H 1 NIL_1    0.000
69 H_14411 157.006 183.896 0.332 H 1 NIL_1    0.000
70 H_14412 155.543 184.456 -0.507 H 1 NIL_1    0.000
71 H_1462 156.282 181.586 -2.711 H 1 NIL_1    0.000
72 H_24071 157.535 181.556 1.183 H 1 NIL_1    0.000
73 H_24072 158.830 182.403 0.292 H 1 NIL_1    0.000
74 H_24073 159.236 181.148 1.467 H 1 NIL_1    0.000
75 H_24051 154.541 179.054 1.306 H 1 NIL_1    0.000
76 H_24052 156.010 180.016 1.048 H 1 NIL_1    0.000
77 H_24053 156.051 178.279 0.788 H 1 NIL_1    0.000
78 H_14651 153.301 180.555 -0.496 H 1 NIL_1    0.000
79 H_14652 154.221 180.886 -1.969 H 1 NIL_1    0.000
80 H_14541 160.373 179.735 0.076 H 1 NIL_1    0.000
81 H_14542 159.482 178.717 -1.059 H 1 NIL_1    0.000
82 H_23471 160.241 171.529 -5.245 H 1 NIL_1    0.000
83 H_23472 158.611 171.648 -5.945 H 1 NIL_1    0.000
84 H_24091 160.618 176.526 -0.791 H 1 NIL_1    0.000
85 H_24092 161.456 176.057 0.713 H 1 NIL_1    0.000
86 H_24093 161.514 177.736 0.165 H 1 NIL_1    0.000
87 H_23491 155.539 171.179 -1.496 H 1 NIL_1    0.000
88 H_23492 155.946 172.737 -0.775 H 1 NIL_1    0.000
89 H_24031 154.002 176.826 0.805 H 1 NIL_1    0.000
90 H_24032 153.824 175.185 0.138 H 1 NIL_1    0.000
91 H_24033 153.509 176.588 -0.892 H 1 NIL_1    0.000
92 H_14671 155.931 176.672 -2.503 H 1 NIL_1    0.000
93 H_14672 156.933 177.565 -1.347 H 1 NIL_1    0.000
94 H_14571 158.120 176.161 2.071 H 1 NIL_1    0.000
95 H_14572 159.738 176.062 2.790 H 1 NIL_1    0.000
96 H_23181 159.130 172.260 -0.165 H 1 NIL_1    0.000
97 H_23182 160.244 173.325 -1.030 H 1 NIL_1    0.000
98 H_23221 156.570 174.397 -2.375 H 1 NIL_1    0.000
99 H_23222 158.105 175.134 -2.817 H 1 NIL_1    0.000
100 H_1460 158.220 176.128 -0.829 H 1 NIL_1    0.000
101 HH 156.838 190.108 -4.687 H 1 NIL_1    0.000
102 HH 162.224 184.004 -0.699 H 1 NIL_1    0.000
103 HH 159.995 168.145 -4.769 H 1 NIL_1    0.000
104 HH 156.768 171.026 2.006 H 1 NIL_1    0.000
@<TRIPOS>BOND
1 1 2 1 
2 1 4 1 
3 2 5 1 
4 3 7 1 
5 3 1 1 
6 6 2 1 
7 7 6 1 
8 8 4 2 
9 9 4 1 
10 10 5 2 
11 11 16 1 
12 11 5 1 
13 12 7 1 
14 13 19 1 
15 13 7 1 
16 14 9 1 
17 14 21 1 
18 15 9 1 
19 15 89 1 
20 15 90 1 
21 15 91 1 
22 16 22 1 
23 17 12 1 
24 18 12 2 
25 19 17 1 
26 20 13 1 
27 23 16 1 
28 23 84 1 
29 23 85 1 
30 23 86 1 
31 24 17 1 
32 25 19 2 
33 26 20 1 
34 27 21 2 
35 28 21 1 
36 29 22 2 
37 30 36 1 
38 30 22 1 
39 31 24 1 
40 32 26 1 
41 33 26 2 
42 34 28 1 
43 34 39 1 
44 35 28 1 
45 35 75 1 
46 35 76 1 
47 35 77 1 
48 36 40 1 
49 37 31 1 
50 38 31 2 
51 39 43 1 
52 40 45 1 
53 41 36 1 
54 42 39 2 
55 43 46 1 
56 44 40 2 
57 45 47 1 
58 45 43 1 
59 47 48 1 
60 48 46 1 
61 49 48 1 
62 50 53 1 
63 50 48 1 
64 51 49 1 
65 52 49 2 
66 53 51 1 
67 54 50 1 
68 55 51 1 
69 56 53 2 
70 57 54 1 
71 58 55 1 
72 58 62 1 
73 59 57 1 
74 60 57 2 
75 61 58 2 
76 63 55 1 
77 64 55 1 
78 65 54 1 
79 66 54 1 
80 67 47 1 
81 68 47 1 
82 69 46 1 
83 70 46 1 
84 71 45 1 
85 72 41 1 
86 73 41 1 
87 74 41 1 
88 78 34 1 
89 79 34 1 
90 80 30 1 
91 81 30 1 
92 82 24 1 
93 83 24 1 
94 87 20 1 
95 88 20 1 
96 92 14 1 
97 93 14 1 
98 94 11 1 
99 95 11 1 
100 96 6 1 
101 97 6 1 
102 98 3 1 
103 99 3 1 
104 100 1 1 
105 101 62 1 
106 102 59 1 
107 103 37 1 
108 104 32 1 
@<TRIPOS>SUBSTRUCTURE
1 NIL_1 1 RESIDUE 1 A NIL 1
