@<TRIPOS>MOLECULE
NIL
177 186 1 0 0
POLYMER
CHARGES


@<TRIPOS>ATOM
1 C_3057 128.641 173.037 3.62522 C.3 1 NIL_1    0.000
2 C_3077 129.472 172.102 2.719 C.3 1 NIL_1    0.000
3 C_3076 130.241 171.071 3.571 C.3 1 NIL_1    0.000
4 C_3082 130.455 172.894 1.820 C.3 1 NIL_1    0.000
5 N 129.873 173.407 0.557 N.am 1 NIL_1    0.000
6 C_3112 129.415 174.814 0.632 C.3 1 NIL_1    0.000
7 C_3109 129.877 172.728 -0.628 C.2 1 NIL_1    0.000
8 C_3111 127.903 174.987 0.517 C.2 1 NIL_1    0.000
9 O 129.629 173.296 -1.676 O.2 1 NIL_1    0.000
10 C_3110 130.184 171.229 -0.614 C.3 1 NIL_1    0.000
11 N 127.433 176.240 0.273 N.am 1 NIL_1    0.000
12 O 127.139 174.049 0.647 O.2 1 NIL_1    0.000
13 N 129.432 170.441 -1.621 N.am 1 NIL_1    0.000
14 C_3125 131.689 170.968 -0.837 C.3 1 NIL_1    0.000
15 C_3115 126.009 176.564 0.051 C.3 1 NIL_1    0.000
16 C_3136 128.268 177.424 0.043 C.3 1 NIL_1    0.000
17 C_3108 128.074 170.351 -1.755 C.2 1 NIL_1    0.000
18 C_3127 130.384 169.639 -2.405 C.3 1 NIL_1    0.000
19 C_3126 131.731 169.670 -1.662 C.3 1 NIL_1    0.000
20 C_3134 125.900 178.092 -0.158 C.3 1 NIL_1    0.000
21 C_3114 125.471 175.792 -1.155 C.2 1 NIL_1    0.000
22 C_3135 127.348 178.631 -0.219 C.3 1 NIL_1    0.000
23 C_3117 127.213 171.313 -0.943 C.3 1 NIL_1    0.000
24 O 127.577 169.546 -2.518 O.2 1 NIL_1    0.000
25 N 132.916 169.439 -2.495 N.am 1 NIL_1    0.000
26 C_3106 131.829 168.446 -0.776 C.2 1 NIL_1    0.000
27 N 124.321 175.049 -1.086 N.am 1 NIL_1    0.000
28 O 126.108 175.826 -2.192 O.2 1 NIL_1    0.000
29 N 127.697 179.395 -1.424 N.am 1 NIL_1    0.000
30 C_3098 127.601 179.711 0.814 C.2 1 NIL_1    0.000
31 N 125.810 170.924 -0.694 N.am 1 NIL_1    0.000
32 C_3104 133.530 168.269 -2.235 C.2 1 NIL_1    0.000
33 C_3156 133.413 170.489 -3.399 C.3 1 NIL_1    0.000
34 O 131.098 168.174 0.158 O.2 1 NIL_1    0.000
35 N 132.863 167.689 -1.212 N.am 1 NIL_1    0.000
36 C_3083 123.437 174.888 0.094 C.3 1 NIL_1    0.000
37 C_3123 124.001 174.170 -2.242 C.3 1 NIL_1    0.000
38 C_3096 128.144 180.637 -1.157 C.2 1 NIL_1    0.000
39 C_3172 127.624 178.767 -2.755 C.3 1 NIL_1    0.000
40 O 127.427 179.609 2.013 O.2 1 NIL_1    0.000
41 N 128.071 180.811 0.182 N.am 1 NIL_1    0.000
42 C_3084 125.650 170.249 0.620 C.3 1 NIL_1    0.000
43 C_3119 124.825 171.124 -1.620 C.2 1 NIL_1    0.000
44 O 134.511 167.829 -2.802 O.2 1 NIL_1    0.000
45 C_3157 134.620 171.178 -2.793 C.2 1 NIL_1    0.000
46 C_3088 133.232 166.385 -0.639 C.3 1 NIL_1    0.000
47 C_3079 122.162 175.762 0.090 C.3 1 NIL_1    0.000
48 C_3122 122.658 173.445 -2.335 C.2 1 NIL_1    0.000
49 O 128.542 181.448 -1.971 O.2 1 NIL_1    0.000
50 C_3173 126.319 179.050 -3.469 C.2 1 NIL_1    0.000
51 C_3086 128.456 182.058 0.865 C.3 1 NIL_1    0.000
52 C_3081 125.743 171.114 1.906 C.3 1 NIL_1    0.000
53 O 125.092 171.202 -2.804 O.2 1 NIL_1    0.000
54 C_3120 123.384 171.248 -1.136 C.3 1 NIL_1    0.000
55 C_3171 135.743 171.422 -3.454 C.2 1 NIL_1    0.000
56 C_3087 134.479 166.462 0.222 C.2 1 NIL_1    0.000
57 C_3058 122.477 177.243 0.382 C.3 1 NIL_1    0.000
58 C_3078 121.161 175.191 1.114 C.3 1 NIL_1    0.000
59 N 122.476 172.162 -1.889 N.am 1 NIL_1    0.000
60 O 121.732 174.034 -2.862 O.2 1 NIL_1    0.000
61 C_3187 126.015 180.218 -4.018 C.2 1 NIL_1    0.000
62 C_3085 127.248 182.911 1.197 C.2 1 NIL_1    0.000
63 C_3056 125.788 170.178 3.129 C.3 1 NIL_1    0.000
64 C_3080 124.605 172.135 2.062 C.3 1 NIL_1    0.000
65 C_3137 122.684 169.872 -1.107 C.3 1 NIL_1    0.000
66 C_3071 134.520 167.270 1.287 C.2 1 NIL_1    0.000
67 C_3075 135.553 165.723 -0.071 C.2 1 NIL_1    0.000
68 C_3139 121.158 171.502 -2.007 C.3 1 NIL_1    0.000
69 C_3062 126.513 183.467 0.226 C.2 1 NIL_1    0.000
70 C_3066 126.894 183.117 2.471 C.2 1 NIL_1    0.000
71 C_3138 121.195 170.221 -1.160 C.3 1 NIL_1    0.000
72 C_3072 135.619 167.344 2.043 C.2 1 NIL_1    0.000
73 C_3074 136.653 165.793 0.684 C.2 1 NIL_1    0.000
74 C_3063 125.442 184.206 0.521 C.2 1 NIL_1    0.000
75 C_3065 125.824 183.857 2.769 C.2 1 NIL_1    0.000
76 N 120.310 169.132 -1.577 N.am 1 NIL_1    0.000
77 C_3102 120.631 170.464 0.227 C.2 1 NIL_1    0.000
78 C_3073 136.686 166.605 1.741 C.2 1 NIL_1    0.000
79 C_3064 125.096 184.401 1.794 C.2 1 NIL_1    0.000
80 C_3100 119.418 168.779 -0.627 C.2 1 NIL_1    0.000
81 C_3140 120.426 168.571 -2.935 C.3 1 NIL_1    0.000
82 O 121.008 171.305 1.021 O.2 1 NIL_1    0.000
83 N 119.619 169.589 0.438 N.am 1 NIL_1    0.000
84 O 118.584 167.898 -0.716 O.2 1 NIL_1    0.000
85 C_3141 120.560 167.063 -2.959 C.2 1 NIL_1    0.000
86 C_3059 118.847 169.497 1.693 C.3 1 NIL_1    0.000
87 C_3155 120.411 166.340 -4.060 C.2 1 NIL_1    0.000
88 C_3060 117.369 169.813 1.556 C.2 1 NIL_1    0.000
89 C_3061 116.446 168.868 1.775 C.2 1 NIL_1    0.000
90 C_3070 116.966 171.046 1.235 C.2 1 NIL_1    0.000
91 C_3067 115.145 169.151 1.675 C.2 1 NIL_1    0.000
92 C_3069 115.665 171.332 1.134 C.2 1 NIL_1    0.000
93 C_3068 114.754 170.384 1.354 C.2 1 NIL_1    0.000
94 H_3068 113.694 170.619 1.274 H 1 NIL_1    0.000
95 H_3069 115.350 172.340 0.877 H 1 NIL_1    0.000
96 H_3067 114.405 168.377 1.861 H 1 NIL_1    0.000
97 H_3070 117.700 171.828 1.060 H 1 NIL_1    0.000
98 H_3061 116.749 167.859 2.044 H 1 NIL_1    0.000
99 H_31551 120.178 166.807 -5.015 H 1 NIL_1    0.000
100 H_31552 120.515 165.257 -4.039 H 1 NIL_1    0.000
101 H_30591 119.277 170.183 2.429 H 1 NIL_1    0.000
102 H_30592 118.970 168.484 2.084 H 1 NIL_1    0.000
103 H_3141 120.789 166.574 -2.016 H 1 NIL_1    0.000
104 H_31401 121.294 169.002 -3.441 H 1 NIL_1    0.000
105 H_31402 119.538 168.867 -3.498 H 1 NIL_1    0.000
106 H_3064 124.222 185.000 2.036 H 1 NIL_1    0.000
107 H_3073 137.582 166.664 2.355 H 1 NIL_1    0.000
108 H_3065 125.546 184.015 3.808 H 1 NIL_1    0.000
109 H_3063 124.849 184.648 -0.276 H 1 NIL_1    0.000
110 H_3074 137.521 165.189 0.434 H 1 NIL_1    0.000
111 H_3072 135.642 168.008 2.902 H 1 NIL_1    0.000
112 H_3066 127.478 182.678 3.277 H 1 NIL_1    0.000
113 H_3062 126.783 183.317 -0.816 H 1 NIL_1    0.000
114 H_31391 120.988 171.258 -3.058 H 1 NIL_1    0.000
115 H_31392 120.360 172.169 -1.665 H 1 NIL_1    0.000
116 H_3075 135.540 165.057 -0.931 H 1 NIL_1    0.000
117 H_3071 133.656 167.878 1.545 H 1 NIL_1    0.000
118 H_31371 122.970 169.302 -1.993 H 1 NIL_1    0.000
119 H_31372 122.921 169.275 -0.227 H 1 NIL_1    0.000
120 H_30801 123.627 171.651 2.072 H 1 NIL_1    0.000
121 H_30802 124.652 172.843 1.238 H 1 NIL_1    0.000
122 H_30803 124.713 172.704 2.988 H 1 NIL_1    0.000
123 H_30561 124.865 169.598 3.204 H 1 NIL_1    0.000
124 H_30562 125.911 170.750 4.051 H 1 NIL_1    0.000
125 H_30563 126.629 169.485 3.045 H 1 NIL_1    0.000
126 H_31871 125.065 180.372 -4.523 H 1 NIL_1    0.000
127 H_31872 126.706 181.056 -3.988 H 1 NIL_1    0.000
128 H_30781 120.969 174.137 0.900 H 1 NIL_1    0.000
129 H_30782 120.209 175.723 1.064 H 1 NIL_1    0.000
130 H_30783 121.553 175.267 2.132 H 1 NIL_1    0.000
131 H_30581 123.117 177.649 -0.402 H 1 NIL_1    0.000
132 H_30582 122.980 177.358 1.346 H 1 NIL_1    0.000
133 H_30583 121.558 177.833 0.400 H 1 NIL_1    0.000
134 H_31711 136.583 171.908 -2.966 H 1 NIL_1    0.000
135 H_31712 135.861 171.145 -4.497 H 1 NIL_1    0.000
136 H_3120 123.414 171.630 -0.122 H 1 NIL_1    0.000
137 H_3081 126.668 171.679 1.888 H 1 NIL_1    0.000
138 H_30861 129.139 182.625 0.226 H 1 NIL_1    0.000
139 H_30862 128.999 181.801 1.779 H 1 NIL_1    0.000
140 H_3173 125.610 178.227 -3.522 H 1 NIL_1    0.000
141 H_3079 121.695 175.706 -0.893 H 1 NIL_1    0.000
142 H_30881 133.389 165.687 -1.465 H 1 NIL_1    0.000
143 H_30882 132.400 166.005 -0.042 H 1 NIL_1    0.000
144 H_3157 134.541 171.466 -1.747 H 1 NIL_1    0.000
145 H_30841 126.446 169.501 0.680 H 1 NIL_1    0.000
146 H_30842 124.718 169.693 0.644 H 1 NIL_1    0.000
147 H_31721 127.755 177.688 -2.657 H 1 NIL_1    0.000
148 H_31722 128.456 179.139 -3.358 H 1 NIL_1    0.000
149 H_31231 124.817 173.466 -2.349 H 1 NIL_1    0.000
150 H_31232 124.023 174.799 -3.136 H 1 NIL_1    0.000
151 H_30831 123.982 175.052 1.024 H 1 NIL_1    0.000
152 H_30832 123.119 173.847 0.135 H 1 NIL_1    0.000
153 H_31561 132.624 171.221 -3.591 H 1 NIL_1    0.000
154 H_31562 133.689 170.026 -4.352 H 1 NIL_1    0.000
155 H_31171 127.705 171.462 0.017 H 1 NIL_1    0.000
156 H_31172 127.214 172.270 -1.473 H 1 NIL_1    0.000
157 H_31341 125.336 178.338 -1.061 H 1 NIL_1    0.000
158 H_31342 125.359 178.531 0.683 H 1 NIL_1    0.000
159 H_31271 130.484 170.084 -3.398 H 1 NIL_1    0.000
160 H_31272 130.023 168.611 -2.507 H 1 NIL_1    0.000
161 H_31361 128.909 177.240 -0.825 H 1 NIL_1    0.000
162 H_31362 128.901 177.595 0.918 H 1 NIL_1    0.000
163 H_3115 125.466 176.295 0.954 H 1 NIL_1    0.000
164 H_31251 132.126 171.798 -1.395 H 1 NIL_1    0.000
165 H_31252 132.232 170.868 0.106 H 1 NIL_1    0.000
166 H_3110 129.901 170.818 0.354 H 1 NIL_1    0.000
167 H_31121 129.880 175.365 -0.187 H 1 NIL_1    0.000
168 H_31122 129.721 175.280 1.572 H 1 NIL_1    0.000
169 H_30821 130.880 173.722 2.394 H 1 NIL_1    0.000
170 H_30822 131.291 172.242 1.563 H 1 NIL_1    0.000
171 H_30761 131.031 171.551 4.152 H 1 NIL_1    0.000
172 H_30762 130.698 170.316 2.926 H 1 NIL_1    0.000
173 H_30763 129.570 170.558 4.263 H 1 NIL_1    0.000
174 H_3077 128.793 171.537 2.084 H 1 NIL_1    0.000
175 H_30571 128.031 173.719 3.035 H 1 NIL_1    0.000
176 H_30572 129.290 173.634 4.270 H 1 NIL_1    0.000
177 H_30573 127.967 172.455 4.258 H 1 NIL_1    0.000
@<TRIPOS>BOND
1 1 2 1 
2 3 2 1 
3 4 2 1 
4 5 4 1 
5 6 8 1 
6 6 5 1 
7 7 5 1 
8 7 9 2 
9 7 10 1 
10 8 12 2 
11 10 13 1 
12 10 14 1 
13 11 15 1 
14 11 8 1 
15 11 16 1 
16 13 18 1 
17 15 20 1 
18 15 21 1 
19 16 22 1 
20 17 13 1 
21 17 24 2 
22 19 25 1 
23 19 26 1 
24 19 14 1 
25 19 18 1 
26 20 22 1 
27 21 27 1 
28 22 29 1 
29 22 30 1 
30 23 17 1 
31 23 31 1 
32 25 32 1 
33 26 35 1 
34 27 36 1 
35 28 21 2 
36 29 38 1 
37 30 41 1 
38 31 42 1 
39 32 35 1 
40 33 25 1 
41 34 26 2 
42 35 46 1 
43 36 47 1 
44 37 48 1 
45 37 27 1 
46 38 41 1 
47 39 29 1 
48 40 30 2 
49 41 51 1 
50 42 52 1 
51 43 31 1 
52 43 53 2 
53 44 32 2 
54 45 33 1 
55 46 56 1 
56 49 38 2 
57 50 39 1 
58 51 62 1 
59 54 65 1 
60 54 43 1 
61 55 45 2 
62 56 66 1 
63 57 47 1 
64 58 47 1 
65 59 54 1 
66 59 48 1 
67 59 68 1 
68 60 48 2 
69 61 50 2 
70 62 69 1 
71 63 52 1 
72 64 52 1 
73 65 71 1 
74 67 73 1 
75 67 56 2 
76 68 71 1 
77 70 75 1 
78 70 62 2 
79 71 76 1 
80 71 77 1 
81 72 66 2 
82 73 78 2 
83 74 69 2 
84 75 79 2 
85 76 80 1 
86 77 83 1 
87 78 72 1 
88 79 74 1 
89 80 83 1 
90 81 76 1 
91 82 77 2 
92 83 86 1 
93 84 80 2 
94 85 81 1 
95 85 103 1 
96 87 85 2 
97 88 86 1 
98 89 88 2 
99 90 92 2 
100 90 88 1 
101 91 89 1 
102 92 93 1 
103 93 91 2 
104 94 93 1 
105 95 92 1 
106 96 91 1 
107 97 90 1 
108 98 89 1 
109 99 87 1 
110 100 87 1 
111 101 86 1 
112 102 86 1 
113 104 81 1 
114 105 81 1 
115 106 79 1 
116 107 78 1 
117 108 75 1 
118 109 74 1 
119 110 73 1 
120 111 72 1 
121 112 70 1 
122 113 69 1 
123 114 68 1 
124 115 68 1 
125 116 67 1 
126 117 66 1 
127 118 65 1 
128 119 65 1 
129 120 64 1 
130 121 64 1 
131 122 64 1 
132 123 63 1 
133 124 63 1 
134 125 63 1 
135 126 61 1 
136 127 61 1 
137 128 58 1 
138 129 58 1 
139 130 58 1 
140 131 57 1 
141 132 57 1 
142 133 57 1 
143 134 55 1 
144 135 55 1 
145 136 54 1 
146 137 52 1 
147 138 51 1 
148 139 51 1 
149 140 50 1 
150 141 47 1 
151 142 46 1 
152 143 46 1 
153 144 45 1 
154 145 42 1 
155 146 42 1 
156 147 39 1 
157 148 39 1 
158 149 37 1 
159 150 37 1 
160 151 36 1 
161 152 36 1 
162 153 33 1 
163 154 33 1 
164 155 23 1 
165 156 23 1 
166 157 20 1 
167 158 20 1 
168 159 18 1 
169 160 18 1 
170 161 16 1 
171 162 16 1 
172 163 15 1 
173 164 14 1 
174 165 14 1 
175 166 10 1 
176 167 6 1 
177 168 6 1 
178 169 4 1 
179 170 4 1 
180 171 3 1 
181 172 3 1 
182 173 3 1 
183 174 2 1 
184 175 1 1 
185 176 1 1 
186 177 1 1 
@<TRIPOS>SUBSTRUCTURE
1 NIL_1 1 RESIDUE 1 A NIL 1
