@<TRIPOS>MOLECULE
NIL
150 159 1 0 0
POLYMER
CHARGES


@<TRIPOS>ATOM
1 C_2590 157.979 127.558 -2.19114 C.3 1 NIL_1    0.000
2 C_2583 159.286 126.788 -1.913 C.3 1 NIL_1    0.000
3 O 157.522 127.176 -3.508 O.3 1 NIL_1    0.000
4 N 159.773 126.947 -0.523 N.am 1 NIL_1    0.000
5 C_2592 156.285 127.772 -3.951 C.3 1 NIL_1    0.000
6 C_2336 159.564 126.072 0.505 C.2 1 NIL_1    0.000
7 C_2333 160.595 128.163 -0.330 C.3 1 NIL_1    0.000
8 C_2335 158.909 124.721 0.216 C.3 1 NIL_1    0.000
9 O 159.877 126.374 1.643 O.2 1 NIL_1    0.000
10 C_2334 159.848 129.341 0.285 C.2 1 NIL_1    0.000
11 C_2320 157.374 124.884 0.124 C.3 1 NIL_1    0.000
12 N 159.167 123.704 1.264 N.am 1 NIL_1    0.000
13 O 158.657 129.282 0.528 O.2 1 NIL_1    0.000
14 N 160.548 130.485 0.519 N.am 1 NIL_1    0.000
15 C_2319 156.824 123.627 0.803 C.3 1 NIL_1    0.000
16 C_2318 157.888 123.283 1.850 C.3 1 NIL_1    0.000
17 C_2337 160.370 123.205 1.653 C.2 1 NIL_1    0.000
18 C_2309 159.897 131.776 0.783 C.3 1 NIL_1    0.000
19 C_2330 162.020 130.667 0.500 C.3 1 NIL_1    0.000
20 C_2339 156.643 122.492 -0.177 C.2 1 NIL_1    0.000
21 NH 155.467 123.718 1.315 N.am 1 NIL_1    0.000
22 O 160.442 122.500 2.642 O.2 1 NIL_1    0.000
23 C_2328 161.591 123.566 0.807 C.3 1 NIL_1    0.000
24 C_2310 160.982 132.860 0.698 C.3 1 NIL_1    0.000
25 C_2331 162.776 129.700 1.414 C.2 1 NIL_1    0.000
26 C_2311 162.292 132.113 0.968 C.3 1 NIL_1    0.000
27 N 155.357 122.074 -0.110 N.am 1 NIL_1    0.000
28 O 157.504 122.019 -0.895 O.2 1 NIL_1    0.000
29 C_2341 154.642 122.791 0.796 C.2 1 NIL_1    0.000
30 N 162.871 122.893 1.157 N.am 1 NIL_1    0.000
31 C_2347 160.989 133.549 -0.646 C.2 1 NIL_1    0.000
32 NH 160.746 134.011 1.552 N.am 1 NIL_1    0.000
33 O 162.312 129.416 2.504 O.2 1 NIL_1    0.000
34 N 163.979 129.181 1.018 N.am 1 NIL_1    0.000
35 C_2577 154.872 120.926 -0.900 C.3 1 NIL_1    0.000
36 O 153.478 122.640 1.105 O.2 1 NIL_1    0.000
37 C_2326 164.072 123.534 1.201 C.2 1 NIL_1    0.000
38 C_2581 162.819 121.409 1.183 C.3 1 NIL_1    0.000
39 N 160.754 134.870 -0.448 N.am 1 NIL_1    0.000
40 O 161.172 133.018 -1.724 O.2 1 NIL_1    0.000
41 C_2569 160.604 135.160 0.871 C.2 1 NIL_1    0.000
42 C_2322 164.708 128.190 1.842 C.3 1 NIL_1    0.000
43 C_2582 164.608 129.353 -0.308 C.3 1 NIL_1    0.000
44 C_2578 153.388 120.738 -1.152 C.2 1 NIL_1    0.000
45 C_2325 164.307 124.711 0.252 C.3 1 NIL_1    0.000
46 O 164.967 123.116 1.911 O.2 1 NIL_1    0.000
47 C_2584 162.204 120.801 -0.096 C.3 1 NIL_1    0.000
48 C_2579 160.631 135.820 -1.573 C.3 1 NIL_1    0.000
49 O 160.376 136.240 1.379 O.2 1 NIL_1    0.000
50 C_2323 164.155 126.793 1.602 C.2 1 NIL_1    0.000
51 C_2587 165.579 130.544 -0.373 C.3 1 NIL_1    0.000
52 C_2593 152.731 121.549 -1.988 C.2 1 NIL_1    0.000
53 C_2597 152.722 119.733 -0.571 C.2 1 NIL_1    0.000
54 C_2308 165.287 124.293 -0.859 C.3 1 NIL_1    0.000
55 N 164.900 125.894 0.903 N.am 1 NIL_1    0.000
56 O 162.186 119.364 0.017 O.3 1 NIL_1    0.000
57 C_2580 160.621 137.312 -1.291 C.2 1 NIL_1    0.000
58 O 163.034 126.510 1.979 O.2 1 NIL_1    0.000
59 O 166.225 130.508 -1.665 O.3 1 NIL_1    0.000
60 C_2594 151.435 121.359 -2.242 C.2 1 NIL_1    0.000
61 C_2596 151.426 119.539 -0.824 C.2 1 NIL_1    0.000
62 C_2307 166.652 124.805 -0.379 C.3 1 NIL_1    0.000
63 C_2306 166.322 126.009 0.522 C.3 1 NIL_1    0.000
64 C_2586 161.548 118.694 -1.093 C.3 1 NIL_1    0.000
65 C_2602 161.763 138.007 -1.272 C.2 1 NIL_1    0.000
66 C_2606 159.468 137.954 -1.072 C.2 1 NIL_1    0.000
67 C_2589 167.192 131.549 -1.911 C.3 1 NIL_1    0.000
68 C_2595 150.782 120.351 -1.662 C.2 1 NIL_1    0.000
69 C_2343 167.599 125.132 -1.508 C.2 1 NIL_1    0.000
70 NH 167.439 123.785 0.293 N.am 1 NIL_1    0.000
71 C_2603 161.755 139.322 -1.044 C.2 1 NIL_1    0.000
72 C_2605 159.457 139.269 -0.837 C.2 1 NIL_1    0.000
73 N 168.704 124.358 -1.382 N.am 1 NIL_1    0.000
74 O 167.406 125.947 -2.391 O.2 1 NIL_1    0.000
75 C_2345 168.610 123.525 -0.311 C.2 1 NIL_1    0.000
76 C_2604 160.601 139.954 -0.828 C.2 1 NIL_1    0.000
77 C_2609 169.823 124.427 -2.345 C.3 1 NIL_1    0.000
78 O 169.405 122.688 0.066 O.2 1 NIL_1    0.000
79 C_2608 171.096 123.684 -1.993 C.2 1 NIL_1    0.000
80 C_2598 171.943 124.187 -1.088 C.2 1 NIL_1    0.000
81 C_2607 171.381 122.505 -2.559 C.2 1 NIL_1    0.000
82 C_2599 173.049 123.524 -0.747 C.2 1 NIL_1    0.000
83 C_2601 172.486 121.839 -2.220 C.2 1 NIL_1    0.000
84 C_2600 173.320 122.347 -1.312 C.2 1 NIL_1    0.000
85 H_2600 174.218 121.802 -1.033 H 1 NIL_1    0.000
86 H_2601 172.708 120.880 -2.683 H 1 NIL_1    0.000
87 H_2599 173.727 123.941 -0.007 H 1 NIL_1    0.000
88 H_2607 170.704 122.074 -3.294 H 1 NIL_1    0.000
89 H_2598 171.726 125.142 -0.616 H 1 NIL_1    0.000
90 H_26091 170.077 125.483 -2.483 H 1 NIL_1    0.000
91 H_26092 169.449 124.063 -3.306 H 1 NIL_1    0.000
92 H_2604 160.591 141.026 -0.645 H 1 NIL_1    0.000
93 H_2605 158.516 139.781 -0.655 H 1 NIL_1    0.000
94 H_2603 162.689 139.879 -1.037 H 1 NIL_1    0.000
95 H_2595 149.729 120.190 -1.874 H 1 NIL_1    0.000
96 H_25891 167.975 131.508 -1.149 H 1 NIL_1    0.000
97 H_25892 166.694 132.521 -1.885 H 1 NIL_1    0.000
98 H_25893 167.633 131.387 -2.899 H 1 NIL_1    0.000
99 H_2606 158.529 137.407 -1.079 H 1 NIL_1    0.000
100 H_2602 162.710 137.502 -1.445 H 1 NIL_1    0.000
101 H_25861 160.525 119.067 -1.203 H 1 NIL_1    0.000
102 H_25862 161.526 117.619 -0.895 H 1 NIL_1    0.000
103 H_25863 162.112 118.888 -2.010 H 1 NIL_1    0.000
104 H_23061 166.953 126.010 1.418 H 1 NIL_1    0.000
105 H_23062 166.487 126.937 -0.031 H 1 NIL_1    0.000
106 H_2596 150.898 118.715 -0.351 H 1 NIL_1    0.000
107 H_2594 150.911 122.022 -2.926 H 1 NIL_1    0.000
108 H_23081 165.283 123.215 -1.042 H 1 NIL_1    0.000
109 H_23082 165.004 124.800 -1.785 H 1 NIL_1    0.000
110 H_2597 153.238 119.058 0.108 H 1 NIL_1    0.000
111 H_2593 153.256 122.370 -2.475 H 1 NIL_1    0.000
112 H_25871 165.041 131.487 -0.261 H 1 NIL_1    0.000
113 H_25872 166.339 130.453 0.408 H 1 NIL_1    0.000
114 H_25791 159.710 135.563 -2.102 H 1 NIL_1    0.000
115 H_25792 161.453 135.615 -2.265 H 1 NIL_1    0.000
116 H_25841 161.173 121.143 -0.218 H 1 NIL_1    0.000
117 H_25842 162.793 121.085 -0.972 H 1 NIL_1    0.000
118 H_2325 163.371 125.002 -0.225 H 1 NIL_1    0.000
119 H_25821 163.851 129.447 -1.087 H 1 NIL_1    0.000
120 H_25822 165.171 128.452 -0.551 H 1 NIL_1    0.000
121 H_23221 164.581 128.415 2.904 H 1 NIL_1    0.000
122 H_23222 165.778 128.224 1.622 H 1 NIL_1    0.000
123 H_25811 162.270 121.068 2.062 H 1 NIL_1    0.000
124 H_25812 163.838 121.020 1.269 H 1 NIL_1    0.000
125 H_25771 155.266 120.027 -0.418 H 1 NIL_1    0.000
126 H_25772 155.354 120.987 -1.879 H 1 NIL_1    0.000
127 H_23111 162.493 132.124 2.042 H 1 NIL_1    0.000
128 H_23112 163.147 132.562 0.456 H 1 NIL_1    0.000
129 H_23281 161.350 123.357 -0.239 H 1 NIL_1    0.000
130 H_23282 161.709 124.642 0.921 H 1 NIL_1    0.000
131 H_2330 162.336 130.560 -0.536 H 1 NIL_1    0.000
132 H_23091 159.465 131.745 1.787 H 1 NIL_1    0.000
133 H_23092 159.106 131.962 0.050 H 1 NIL_1    0.000
134 H_23181 157.719 123.855 2.767 H 1 NIL_1    0.000
135 H_23182 157.884 122.212 2.074 H 1 NIL_1    0.000
136 H_23201 157.060 125.766 0.690 H 1 NIL_1    0.000
137 H_23202 157.023 124.987 -0.905 H 1 NIL_1    0.000
138 H_2335 159.299 124.318 -0.722 H 1 NIL_1    0.000
139 H_23331 161.007 128.508 -1.282 H 1 NIL_1    0.000
140 H_23332 161.429 127.906 0.322 H 1 NIL_1    0.000
141 H_25921 156.425 128.846 -4.102 H 1 NIL_1    0.000
142 H_25922 155.504 127.595 -3.207 H 1 NIL_1    0.000
143 H_25923 155.998 127.306 -4.898 H 1 NIL_1    0.000
144 H_25831 159.116 125.737 -2.141 H 1 NIL_1    0.000
145 H_25832 160.051 127.136 -2.612 H 1 NIL_1    0.000
146 H_25901 157.217 127.289 -1.456 H 1 NIL_1    0.000
147 H_25902 158.152 128.636 -2.159 H 1 NIL_1    0.000
148 HH 167.112 123.303 1.116 H 1 NIL_1    0.000
149 HH 160.678 133.942 2.556 H 1 NIL_1    0.000
150 HH 155.193 124.391 2.015 H 1 NIL_1    0.000
@<TRIPOS>BOND
1 1 2 1 
2 2 4 1 
3 3 1 1 
4 5 3 1 
5 6 8 1 
6 6 9 2 
7 6 4 1 
8 7 4 1 
9 7 10 1 
10 11 15 1 
11 11 8 1 
12 12 16 1 
13 12 8 1 
14 13 10 2 
15 14 18 1 
16 14 10 1 
17 14 19 1 
18 15 16 1 
19 17 23 1 
20 17 12 1 
21 20 15 1 
22 21 29 1 
23 21 15 1 
24 22 17 2 
25 23 30 1 
26 24 18 1 
27 25 19 1 
28 25 33 2 
29 25 34 1 
30 26 24 1 
31 26 19 1 
32 27 20 1 
33 28 20 2 
34 29 27 1 
35 31 24 1 
36 32 41 1 
37 32 24 1 
38 35 27 1 
39 36 29 2 
40 37 45 1 
41 37 46 2 
42 37 30 1 
43 38 30 1 
44 39 31 1 
45 40 31 2 
46 41 39 1 
47 42 34 1 
48 42 50 1 
49 43 34 1 
50 44 35 1 
51 47 38 1 
52 48 39 1 
53 49 41 2 
54 51 43 1 
55 52 44 2 
56 53 61 2 
57 53 44 1 
58 54 62 1 
59 54 45 1 
60 55 63 1 
61 55 50 1 
62 55 45 1 
63 56 47 1 
64 57 48 1 
65 58 50 2 
66 59 51 1 
67 60 52 1 
68 61 68 1 
69 62 63 1 
70 64 56 1 
71 65 57 2 
72 66 72 2 
73 66 57 1 
74 67 59 1 
75 68 60 2 
76 69 62 1 
77 70 75 1 
78 70 62 1 
79 71 65 1 
80 72 76 1 
81 73 69 1 
82 74 69 2 
83 75 73 1 
84 76 71 2 
85 77 73 1 
86 78 75 2 
87 79 80 1 
88 79 77 1 
89 81 83 1 
90 81 79 2 
91 82 80 2 
92 83 84 2 
93 84 82 1 
94 85 84 1 
95 86 83 1 
96 87 82 1 
97 88 81 1 
98 89 80 1 
99 90 77 1 
100 91 77 1 
101 92 76 1 
102 93 72 1 
103 94 71 1 
104 95 68 1 
105 96 67 1 
106 97 67 1 
107 98 67 1 
108 99 66 1 
109 100 65 1 
110 101 64 1 
111 102 64 1 
112 103 64 1 
113 104 63 1 
114 105 63 1 
115 106 61 1 
116 107 60 1 
117 108 54 1 
118 109 54 1 
119 110 53 1 
120 111 52 1 
121 112 51 1 
122 113 51 1 
123 114 48 1 
124 115 48 1 
125 116 47 1 
126 117 47 1 
127 118 45 1 
128 119 43 1 
129 120 43 1 
130 121 42 1 
131 122 42 1 
132 123 38 1 
133 124 38 1 
134 125 35 1 
135 126 35 1 
136 127 26 1 
137 128 26 1 
138 129 23 1 
139 130 23 1 
140 131 19 1 
141 132 18 1 
142 133 18 1 
143 134 16 1 
144 135 16 1 
145 136 11 1 
146 137 11 1 
147 138 8 1 
148 139 7 1 
149 140 7 1 
150 141 5 1 
151 142 5 1 
152 143 5 1 
153 144 2 1 
154 145 2 1 
155 146 1 1 
156 147 1 1 
157 148 70 1 
158 149 32 1 
159 150 21 1 
@<TRIPOS>SUBSTRUCTURE
1 NIL_1 1 RESIDUE 1 A NIL 1
