@<TRIPOS>MOLECULE
NIL
156 165 1 0 0
POLYMER
CHARGES


@<TRIPOS>ATOM
1 NH 149.43 116.959 2.1344 N.am 1 NIL_1    0.000
2 C_2621 148.441 117.408 1.324 C.2 1 NIL_1    0.000
3 C_2612 150.444 115.941 1.808 C.3 1 NIL_1    0.000
4 C_2620 148.542 117.176 -0.188 C.3 1 NIL_1    0.000
5 O 147.513 118.013 1.825 O.2 1 NIL_1    0.000
6 C_2613 149.771 114.641 1.394 C.2 1 NIL_1    0.000
7 C_2668 151.350 115.675 3.039 C.3 1 NIL_1    0.000
8 C_2601 149.458 118.240 -0.830 C.3 1 NIL_1    0.000
9 N 147.227 117.311 -0.848 N.am 1 NIL_1    0.000
10 O 148.656 114.360 1.795 O.2 1 NIL_1    0.000
11 N 150.437 113.801 0.559 N.am 1 NIL_1    0.000
12 C_2671 152.307 116.845 3.384 C.3 1 NIL_1    0.000
13 C_2541 148.497 119.417 -1.030 C.3 1 NIL_1    0.000
14 C_2540 147.138 118.732 -1.260 C.3 1 NIL_1    0.000
15 C_2624 146.820 116.356 -1.726 C.2 1 NIL_1    0.000
16 C_2598 151.815 113.933 0.045 C.3 1 NIL_1    0.000
17 C_2615 149.812 112.601 -0.014 C.3 1 NIL_1    0.000
18 C_2672 153.306 117.130 2.237 C.3 1 NIL_1    0.000
19 C_2673 153.088 116.521 4.677 C.3 1 NIL_1    0.000
20 C_2637 148.836 120.383 -2.142 C.2 1 NIL_1    0.000
21 NH 148.487 120.349 0.090 N.am 1 NIL_1    0.000
22 O 147.226 116.360 -2.874 O.2 1 NIL_1    0.000
23 C_2623 145.836 115.277 -1.258 C.3 1 NIL_1    0.000
24 C_2599 152.157 112.576 -0.595 C.3 1 NIL_1    0.000
25 C_2616 149.484 111.584 1.073 C.2 1 NIL_1    0.000
26 C_2600 150.798 112.029 -1.045 C.3 1 NIL_1    0.000
27 N 148.888 121.632 -1.617 N.am 1 NIL_1    0.000
28 O 148.999 120.099 -3.313 O.2 1 NIL_1    0.000
29 C_2639 148.712 121.622 -0.273 C.2 1 NIL_1    0.000
30 NH 145.798 115.071 0.206 N.am 1 NIL_1    0.000
31 C_2669 144.452 115.546 -1.927 C.3 1 NIL_1    0.000
32 C_2633 153.166 112.610 -1.716 C.2 1 NIL_1    0.000
33 NH 152.840 111.663 0.309 N.am 1 NIL_1    0.000
34 O 150.280 111.310 1.950 O.2 1 NIL_1    0.000
35 NH 148.283 110.964 1.062 N.am 1 NIL_1    0.000
36 C_2649 149.027 122.863 -2.420 C.3 1 NIL_1    0.000
37 O 148.738 122.575 0.481 O.2 1 NIL_1    0.000
38 C_2626 145.414 113.954 0.889 C.2 1 NIL_1    0.000
39 C_2674 143.423 116.417 -1.142 C.3 1 NIL_1    0.000
40 N 154.141 111.712 -1.429 N.am 1 NIL_1    0.000
41 O 153.116 113.305 -2.711 O.2 1 NIL_1    0.000
42 C_2635 153.960 111.141 -0.215 C.2 1 NIL_1    0.000
43 C_2618 147.163 111.157 0.127 C.3 1 NIL_1    0.000
44 C_2650 147.961 123.909 -2.126 C.2 1 NIL_1    0.000
45 C_2625 144.611 112.848 0.193 C.3 1 NIL_1    0.000
46 O 145.665 113.885 2.076 O.2 1 NIL_1    0.000
47 C_2675 142.121 116.533 -1.964 C.3 1 NIL_1    0.000
48 C_2676 143.930 117.828 -0.783 C.3 1 NIL_1    0.000
49 C_2667 155.255 111.375 -2.328 C.3 1 NIL_1    0.000
50 O 154.672 110.311 0.315 O.2 1 NIL_1    0.000
51 C_2627 145.895 110.711 0.839 C.2 1 NIL_1    0.000
52 C_2670 147.436 110.331 -1.161 C.3 1 NIL_1    0.000
53 C_2660 148.297 125.145 -1.733 C.2 1 NIL_1    0.000
54 C_2664 146.662 123.606 -2.248 C.2 1 NIL_1    0.000
55 C_2610 143.100 113.183 0.296 C.3 1 NIL_1    0.000
56 N 144.783 111.498 0.798 N.am 1 NIL_1    0.000
57 C_2666 156.553 112.003 -1.867 C.2 1 NIL_1    0.000
58 O 145.873 109.644 1.425 O.2 1 NIL_1    0.000
59 C_2677 146.290 110.321 -2.208 C.3 1 NIL_1    0.000
60 C_2661 147.357 126.055 -1.468 C.2 1 NIL_1    0.000
61 C_2663 145.721 124.512 -1.980 C.2 1 NIL_1    0.000
62 C_2609 142.409 111.916 0.818 C.3 1 NIL_1    0.000
63 C_2608 143.531 111.086 1.441 C.3 1 NIL_1    0.000
64 C_2656 157.518 111.257 -1.317 C.2 1 NIL_1    0.000
65 C_2665 156.749 113.319 -2.001 C.2 1 NIL_1    0.000
66 C_2678 145.309 109.147 -1.980 C.3 1 NIL_1    0.000
67 C_2679 146.880 110.211 -3.631 C.3 1 NIL_1    0.000
68 C_2662 146.067 125.738 -1.589 C.2 1 NIL_1    0.000
69 C_2629 141.677 111.136 -0.254 C.2 1 NIL_1    0.000
70 NH 141.303 112.164 1.726 N.am 1 NIL_1    0.000
71 C_2657 158.658 111.816 -0.906 C.2 1 NIL_1    0.000
72 C_2659 157.886 113.881 -1.590 C.2 1 NIL_1    0.000
73 N 140.388 110.994 0.141 N.am 1 NIL_1    0.000
74 O 142.157 110.703 -1.283 O.2 1 NIL_1    0.000
75 C_2631 140.150 111.612 1.321 C.2 1 NIL_1    0.000
76 C_2658 158.841 113.130 -1.041 C.2 1 NIL_1    0.000
77 C_2647 139.371 110.213 -0.585 C.3 1 NIL_1    0.000
78 O 139.095 111.666 1.923 O.2 1 NIL_1    0.000
79 C_2648 139.161 108.868 0.085 C.2 1 NIL_1    0.000
80 C_2651 139.920 107.817 -0.245 C.2 1 NIL_1    0.000
81 C_2655 138.228 108.717 1.032 C.2 1 NIL_1    0.000
82 C_2652 139.755 106.642 0.366 C.2 1 NIL_1    0.000
83 C_2654 138.064 107.546 1.649 C.2 1 NIL_1    0.000
84 C_2653 138.830 106.507 1.317 C.2 1 NIL_1    0.000
85 H_2653 138.700 105.553 1.822 H 1 NIL_1    0.000
86 H_2654 137.309 107.441 2.424 H 1 NIL_1    0.000
87 H_2652 140.379 105.794 0.093 H 1 NIL_1    0.000
88 H_2655 137.596 109.556 1.315 H 1 NIL_1    0.000
89 H_2651 140.682 107.916 -1.014 H 1 NIL_1    0.000
90 H_26471 139.683 110.074 -1.623 H 1 NIL_1    0.000
91 H_26472 138.434 110.778 -0.588 H 1 NIL_1    0.000
92 H_2658 159.770 113.587 -0.707 H 1 NIL_1    0.000
93 H_2659 158.033 114.953 -1.705 H 1 NIL_1    0.000
94 H_2657 159.437 111.202 -0.460 H 1 NIL_1    0.000
95 H_2662 145.301 126.478 -1.371 H 1 NIL_1    0.000
96 H_26791 147.476 109.301 -3.734 H 1 NIL_1    0.000
97 H_26792 147.518 111.069 -3.853 H 1 NIL_1    0.000
98 H_26793 146.082 110.184 -4.374 H 1 NIL_1    0.000
99 H_26781 144.789 109.231 -1.028 H 1 NIL_1    0.000
100 H_26782 145.841 108.192 -1.995 H 1 NIL_1    0.000
101 H_26783 144.551 109.121 -2.765 H 1 NIL_1    0.000
102 H_2665 155.976 113.940 -2.449 H 1 NIL_1    0.000
103 H_2656 157.381 110.184 -1.201 H 1 NIL_1    0.000
104 H_26081 143.608 111.303 2.510 H 1 NIL_1    0.000
105 H_26082 143.350 110.016 1.300 H 1 NIL_1    0.000
106 H_2663 144.671 124.249 -2.082 H 1 NIL_1    0.000
107 H_2661 147.640 127.058 -1.152 H 1 NIL_1    0.000
108 H_2677 145.742 111.261 -2.157 H 1 NIL_1    0.000
109 H_26101 142.945 113.992 1.015 H 1 NIL_1    0.000
110 H_26102 142.677 113.498 -0.660 H 1 NIL_1    0.000
111 H_2664 146.366 122.609 -2.565 H 1 NIL_1    0.000
112 H_2660 149.345 125.418 -1.625 H 1 NIL_1    0.000
113 H_26701 147.701 109.304 -0.896 H 1 NIL_1    0.000
114 H_26702 148.324 110.756 -1.632 H 1 NIL_1    0.000
115 H_26671 155.022 111.714 -3.341 H 1 NIL_1    0.000
116 H_26672 155.356 110.287 -2.360 H 1 NIL_1    0.000
117 H_26761 144.723 117.768 -0.035 H 1 NIL_1    0.000
118 H_26762 143.125 118.426 -0.349 H 1 NIL_1    0.000
119 H_26763 144.301 118.350 -1.668 H 1 NIL_1    0.000
120 H_26751 141.724 115.544 -2.204 H 1 NIL_1    0.000
121 H_26752 142.295 117.071 -2.899 H 1 NIL_1    0.000
122 H_26753 141.355 117.067 -1.397 H 1 NIL_1    0.000
123 H_2625 144.903 112.799 -0.855 H 1 NIL_1    0.000
124 H_2618 147.067 112.213 -0.120 H 1 NIL_1    0.000
125 H_2674 143.175 115.922 -0.205 H 1 NIL_1    0.000
126 H_26491 148.969 122.602 -3.481 H 1 NIL_1    0.000
127 H_26492 150.022 123.276 -2.237 H 1 NIL_1    0.000
128 H_26691 143.993 114.579 -2.129 H 1 NIL_1    0.000
129 H_26692 144.606 115.990 -2.914 H 1 NIL_1    0.000
130 H_26001 150.778 110.937 -1.096 H 1 NIL_1    0.000
131 H_26002 150.548 112.424 -2.032 H 1 NIL_1    0.000
132 H_2623 146.234 114.358 -1.696 H 1 NIL_1    0.000
133 H_26731 153.761 115.674 4.524 H 1 NIL_1    0.000
134 H_26732 152.409 116.268 5.493 H 1 NIL_1    0.000
135 H_26733 153.684 117.381 4.993 H 1 NIL_1    0.000
136 H_26721 152.798 117.492 1.342 H 1 NIL_1    0.000
137 H_26722 153.868 116.228 1.982 H 1 NIL_1    0.000
138 H_26723 154.019 117.899 2.541 H 1 NIL_1    0.000
139 H_2615 148.902 112.906 -0.530 H 1 NIL_1    0.000
140 H_25981 152.520 114.172 0.845 H 1 NIL_1    0.000
141 H_25982 151.829 114.726 -0.709 H 1 NIL_1    0.000
142 H_25401 146.358 119.237 -0.686 H 1 NIL_1    0.000
143 H_25402 146.871 118.784 -2.319 H 1 NIL_1    0.000
144 H_2671 151.713 117.745 3.563 H 1 NIL_1    0.000
145 H_26011 150.323 118.489 -0.209 H 1 NIL_1    0.000
146 H_26012 149.815 117.877 -1.798 H 1 NIL_1    0.000
147 H_26681 151.940 114.770 2.887 H 1 NIL_1    0.000
148 H_26682 150.705 115.477 3.900 H 1 NIL_1    0.000
149 H_2620 148.945 116.180 -0.384 H 1 NIL_1    0.000
150 H_2612 151.035 116.293 0.959 H 1 NIL_1    0.000
151 HH 141.412 112.677 2.587 H 1 NIL_1    0.000
152 HH 148.123 110.276 1.781 H 1 NIL_1    0.000
153 HH 152.460 111.398 1.206 H 1 NIL_1    0.000
154 HH 146.254 115.793 0.743 H 1 NIL_1    0.000
155 HH 148.311 120.056 1.040 H 1 NIL_1    0.000
156 HH 149.356 117.188 3.113 H 1 NIL_1    0.000
@<TRIPOS>BOND
1 1 156 1 
2 2 4 1 
3 2 1 1 
4 3 1 1 
5 3 7 1 
6 3 150 1 
7 4 149 1 
8 5 2 2 
9 6 3 1 
10 6 11 1 
11 7 12 1 
12 7 147 1 
13 7 148 1 
14 8 13 1 
15 8 4 1 
16 8 145 1 
17 8 146 1 
18 9 14 1 
19 9 4 1 
20 10 6 2 
21 11 16 1 
22 11 17 1 
23 12 144 1 
24 13 14 1 
25 13 20 1 
26 13 21 1 
27 14 142 1 
28 14 143 1 
29 15 22 2 
30 15 9 1 
31 15 23 1 
32 16 140 1 
33 16 141 1 
34 17 139 1 
35 18 12 1 
36 18 136 1 
37 18 137 1 
38 18 138 1 
39 19 12 1 
40 19 133 1 
41 19 134 1 
42 19 135 1 
43 21 29 1 
44 21 155 1 
45 23 30 1 
46 23 31 1 
47 23 132 1 
48 24 16 1 
49 24 32 1 
50 24 33 1 
51 25 17 1 
52 25 35 1 
53 26 24 1 
54 26 17 1 
55 26 130 1 
56 26 131 1 
57 27 20 1 
58 28 20 2 
59 29 27 1 
60 30 154 1 
61 31 39 1 
62 31 128 1 
63 31 129 1 
64 32 41 2 
65 33 42 1 
66 33 153 1 
67 34 25 2 
68 35 152 1 
69 36 27 1 
70 36 126 1 
71 36 127 1 
72 37 29 2 
73 38 45 1 
74 38 46 2 
75 38 30 1 
76 39 125 1 
77 40 32 1 
78 40 42 1 
79 40 49 1 
80 43 35 1 
81 43 52 1 
82 43 124 1 
83 44 36 1 
84 44 53 2 
85 44 54 1 
86 45 55 1 
87 45 56 1 
88 45 123 1 
89 47 39 1 
90 47 120 1 
91 47 121 1 
92 47 122 1 
93 48 39 1 
94 48 117 1 
95 48 118 1 
96 48 119 1 
97 49 57 1 
98 49 115 1 
99 49 116 1 
100 50 42 2 
101 51 43 1 
102 51 56 1 
103 52 59 1 
104 52 113 1 
105 52 114 1 
106 53 112 1 
107 54 61 2 
108 54 111 1 
109 55 62 1 
110 55 109 1 
111 55 110 1 
112 56 63 1 
113 57 64 1 
114 58 51 2 
115 59 108 1 
116 60 53 1 
117 60 107 1 
118 61 68 1 
119 61 106 1 
120 62 63 1 
121 63 104 1 
122 63 105 1 
123 64 103 1 
124 65 72 1 
125 65 57 2 
126 65 102 1 
127 66 59 1 
128 66 99 1 
129 66 100 1 
130 66 101 1 
131 67 59 1 
132 67 96 1 
133 67 97 1 
134 67 98 1 
135 68 60 2 
136 68 95 1 
137 69 62 1 
138 69 74 2 
139 70 75 1 
140 70 62 1 
141 70 151 1 
142 71 64 2 
143 71 94 1 
144 72 76 2 
145 72 93 1 
146 73 69 1 
147 73 77 1 
148 75 73 1 
149 75 78 2 
150 76 71 1 
151 76 92 1 
152 77 90 1 
153 77 91 1 
154 79 77 1 
155 79 81 1 
156 80 79 2 
157 80 82 1 
158 80 89 1 
159 81 83 2 
160 81 88 1 
161 82 87 1 
162 83 84 1 
163 83 86 1 
164 84 82 2 
165 84 85 1 
@<TRIPOS>SUBSTRUCTURE
1 NIL_1 1 RESIDUE 1 A NIL 1
