@<TRIPOS>MOLECULE
NIL
156 165 1 0 0
POLYMER
CHARGES


@<TRIPOS>ATOM
1 C_2425 166.565 117.31 0.44007 C.2 1 NIL_1    0.000
2 C_2424 165.913 118.463 0.594 C.2 1 NIL_1    0.000
3 C_2426 166.209 116.472 -0.534 C.2 1 NIL_1    0.000
4 C_2423 164.906 118.775 -0.225 C.2 1 NIL_1    0.000
5 C_2432 165.202 116.786 -1.349 C.2 1 NIL_1    0.000
6 C_2433 164.538 117.939 -1.204 C.2 1 NIL_1    0.000
7 C_2434 163.377 118.281 -2.123 C.3 1 NIL_1    0.000
8 N 162.028 118.322 -1.516 N.am 1 NIL_1    0.000
9 C_2388 161.011 119.072 -2.013 C.2 1 NIL_1    0.000
10 C_2390 161.641 117.626 -0.416 C.2 1 NIL_1    0.000
11 C_2352 159.808 118.911 -1.110 C.3 1 NIL_1    0.000
12 O 161.071 119.768 -3.008 O.2 1 NIL_1    0.000
13 NH 160.371 117.968 -0.157 N.am 1 NIL_1    0.000
14 O 162.291 116.829 0.232 O.2 1 NIL_1    0.000
15 C_2351 159.363 120.231 -0.463 C.3 1 NIL_1    0.000
16 C_2353 158.530 118.382 -1.790 C.3 1 NIL_1    0.000
17 N 157.900 120.168 -0.293 N.am 1 NIL_1    0.000
18 C_2370 157.370 118.946 -0.932 C.3 1 NIL_1    0.000
19 C_2368 157.120 121.071 0.359 C.2 1 NIL_1    0.000
20 C_2371 156.924 117.944 0.137 C.2 1 NIL_1    0.000
21 O 155.920 120.903 0.433 O.2 1 NIL_1    0.000
22 C_2367 157.773 122.279 1.020 C.3 1 NIL_1    0.000
23 O 157.722 117.622 0.997 O.2 1 NIL_1    0.000
24 N 155.662 117.403 0.124 N.am 1 NIL_1    0.000
25 N 157.193 123.556 0.551 N.am 1 NIL_1    0.000
26 C_2373 154.549 117.876 -0.781 C.3 1 NIL_1    0.000
27 C_2406 155.396 116.225 1.000 C.3 1 NIL_1    0.000
28 C_2376 155.976 124.000 0.995 C.2 1 NIL_1    0.000
29 C_2407 158.032 124.195 -0.492 C.3 1 NIL_1    0.000
30 C_2382 153.081 117.436 -0.561 C.2 1 NIL_1    0.000
31 C_2409 155.377 114.869 0.247 C.3 1 NIL_1    0.000
32 C_2375 155.304 125.185 0.298 C.3 1 NIL_1    0.000
33 O 155.434 123.468 1.945 O.2 1 NIL_1    0.000
34 C_2412 159.009 125.270 0.056 C.3 1 NIL_1    0.000
35 O 152.772 116.465 0.102 O.2 1 NIL_1    0.000
36 N 152.080 118.055 -1.263 N.am 1 NIL_1    0.000
37 C_2410 154.933 113.742 1.205 C.3 1 NIL_1    0.000
38 C_2716 156.761 114.546 -0.358 C.3 1 NIL_1    0.000
39 C_2356 155.750 126.516 0.923 C.3 1 NIL_1    0.000
40 N 153.824 125.168 0.321 N.am 1 NIL_1    0.000
41 C_2413 159.429 126.211 -1.092 C.3 1 NIL_1    0.000
42 C_2534 160.256 124.660 0.735 C.3 1 NIL_1    0.000
43 C_2363 150.840 117.300 -1.554 C.3 1 NIL_1    0.000
44 C_2380 151.582 119.465 -1.153 C.3 1 NIL_1    0.000
45 C_2355 154.565 127.451 0.693 C.3 1 NIL_1    0.000
46 C_2354 153.347 126.519 0.679 C.3 1 NIL_1    0.000
47 C_2379 153.128 124.360 -0.518 C.2 1 NIL_1    0.000
48 C_2364 149.809 117.856 -0.571 C.3 1 NIL_1    0.000
49 C_2381 152.359 120.539 -0.376 C.2 1 NIL_1    0.000
50 C_2365 150.144 119.352 -0.569 C.3 1 NIL_1    0.000
51 C_2392 154.706 128.215 -0.602 C.2 1 NIL_1    0.000
52 NH 154.517 128.562 1.625 N.am 1 NIL_1    0.000
53 O 152.587 124.836 -1.497 O.2 1 NIL_1    0.000
54 C_2378 153.142 122.873 -0.137 C.3 1 NIL_1    0.000
55 C_2384 148.362 117.540 -0.886 C.2 1 NIL_1    0.000
56 NH 149.895 117.253 0.751 N.am 1 NIL_1    0.000
57 O 153.062 120.232 0.569 O.2 1 NIL_1    0.000
58 N 152.198 121.865 -0.714 N.am 1 NIL_1    0.000
59 N 154.801 129.532 -0.301 N.am 1 NIL_1    0.000
60 O 154.732 127.736 -1.720 O.2 1 NIL_1    0.000
61 C_2394 154.720 129.752 1.035 C.2 1 NIL_1    0.000
62 N 147.823 116.914 0.190 N.am 1 NIL_1    0.000
63 O 147.773 117.809 -1.915 O.2 1 NIL_1    0.000
64 C_2386 148.736 116.724 1.172 C.2 1 NIL_1    0.000
65 C_2408 151.060 122.393 -1.523 C.3 1 NIL_1    0.000
66 C_2404 155.011 130.585 -1.315 C.3 1 NIL_1    0.000
67 O 154.816 130.814 1.616 O.2 1 NIL_1    0.000
68 C_2402 146.400 116.555 0.316 C.3 1 NIL_1    0.000
69 O 148.559 116.181 2.244 O.2 1 NIL_1    0.000
70 C_2415 150.006 123.248 -0.755 C.3 1 NIL_1    0.000
71 C_2405 154.217 131.866 -1.125 C.2 1 NIL_1    0.000
72 C_2403 145.966 115.357 -0.506 C.2 1 NIL_1    0.000
73 C_2416 149.413 122.530 0.476 C.3 1 NIL_1    0.000
74 C_2715 148.874 123.657 -1.723 C.3 1 NIL_1    0.000
75 C_2427 152.908 131.828 -0.853 C.2 1 NIL_1    0.000
76 C_2431 154.822 133.054 -1.222 C.2 1 NIL_1    0.000
77 C_2418 146.534 114.160 -0.318 C.2 1 NIL_1    0.000
78 C_2422 144.993 115.474 -1.418 C.2 1 NIL_1    0.000
79 C_2428 152.219 132.957 -0.667 C.2 1 NIL_1    0.000
80 C_2430 154.135 134.185 -1.041 C.2 1 NIL_1    0.000
81 C_2419 146.148 113.105 -1.036 C.2 1 NIL_1    0.000
82 C_2421 144.604 114.420 -2.137 C.2 1 NIL_1    0.000
83 C_2429 152.834 134.135 -0.760 C.2 1 NIL_1    0.000
84 C_2420 145.184 113.234 -1.948 C.2 1 NIL_1    0.000
85 H_2420 144.870 112.374 -2.534 H 1 NIL_1    0.000
86 H_2429 152.275 135.056 -0.607 H 1 NIL_1    0.000
87 H_2421 143.814 114.526 -2.874 H 1 NIL_1    0.000
88 H_2419 146.618 112.138 -0.876 H 1 NIL_1    0.000
89 H_2430 154.639 135.145 -1.121 H 1 NIL_1    0.000
90 H_2428 151.156 132.913 -0.439 H 1 NIL_1    0.000
91 H_2422 144.507 116.434 -1.579 H 1 NIL_1    0.000
92 H_2418 147.317 114.042 0.428 H 1 NIL_1    0.000
93 H_2431 155.884 133.109 -1.449 H 1 NIL_1    0.000
94 H_2427 152.393 130.874 -0.772 H 1 NIL_1    0.000
95 H_27151 148.400 122.777 -2.164 H 1 NIL_1    0.000
96 H_27152 149.269 124.266 -2.540 H 1 NIL_1    0.000
97 H_27153 148.107 124.234 -1.199 H 1 NIL_1    0.000
98 H_24161 148.796 123.229 1.047 H 1 NIL_1    0.000
99 H_24162 150.202 122.163 1.136 H 1 NIL_1    0.000
100 H_24163 148.779 121.695 0.176 H 1 NIL_1    0.000
101 H_2415 150.468 124.162 -0.384 H 1 NIL_1    0.000
102 H_24021 145.812 117.433 0.033 H 1 NIL_1    0.000
103 H_24022 146.180 116.354 1.368 H 1 NIL_1    0.000
104 H_24041 154.760 130.178 -2.299 H 1 NIL_1    0.000
105 H_24042 156.080 130.816 -1.323 H 1 NIL_1    0.000
106 H_24081 150.519 121.578 -1.996 H 1 NIL_1    0.000
107 H_24082 151.463 122.971 -2.357 H 1 NIL_1    0.000
108 H_23781 154.151 122.530 -0.371 H 1 NIL_1    0.000
109 H_23782 153.019 122.847 0.950 H 1 NIL_1    0.000
110 H_23651 150.090 119.752 0.447 H 1 NIL_1    0.000
111 H_23652 149.438 119.898 -1.196 H 1 NIL_1    0.000
112 H_23541 152.907 126.468 1.679 H 1 NIL_1    0.000
113 H_23542 152.590 126.876 -0.022 H 1 NIL_1    0.000
114 H_2380 151.518 119.818 -2.186 H 1 NIL_1    0.000
115 H_23631 150.959 116.221 -1.440 H 1 NIL_1    0.000
116 H_23632 150.534 117.511 -2.583 H 1 NIL_1    0.000
117 H_25341 159.973 124.070 1.609 H 1 NIL_1    0.000
118 H_25342 160.921 125.456 1.084 H 1 NIL_1    0.000
119 H_25343 160.813 124.025 0.042 H 1 NIL_1    0.000
120 H_24131 160.109 126.986 -0.730 H 1 NIL_1    0.000
121 H_24132 158.552 126.704 -1.520 H 1 NIL_1    0.000
122 H_24133 159.930 125.652 -1.886 H 1 NIL_1    0.000
123 H_23561 155.918 126.387 1.996 H 1 NIL_1    0.000
124 H_23562 156.656 126.912 0.463 H 1 NIL_1    0.000
125 H_27161 157.537 114.546 0.412 H 1 NIL_1    0.000
126 H_27162 157.031 115.282 -1.119 H 1 NIL_1    0.000
127 H_27163 156.752 113.564 -0.838 H 1 NIL_1    0.000
128 H_24101 153.950 113.964 1.628 H 1 NIL_1    0.000
129 H_24102 155.642 113.626 2.029 H 1 NIL_1    0.000
130 H_24103 154.862 112.790 0.674 H 1 NIL_1    0.000
131 H_2412 158.498 125.867 0.811 H 1 NIL_1    0.000
132 H_2375 155.576 125.178 -0.757 H 1 NIL_1    0.000
133 H_2409 154.658 114.911 -0.572 H 1 NIL_1    0.000
134 H_24071 157.393 124.647 -1.251 H 1 NIL_1    0.000
135 H_24072 158.611 123.428 -1.018 H 1 NIL_1    0.000
136 H_24061 154.480 116.382 1.569 H 1 NIL_1    0.000
137 H_24062 156.159 116.146 1.776 H 1 NIL_1    0.000
138 H_23731 154.796 117.560 -1.798 H 1 NIL_1    0.000
139 H_23732 154.558 118.965 -0.790 H 1 NIL_1    0.000
140 H_23671 157.617 122.182 2.097 H 1 NIL_1    0.000
141 H_23672 158.848 122.270 0.841 H 1 NIL_1    0.000
142 H_2370 156.535 119.206 -1.585 H 1 NIL_1    0.000
143 H_23531 158.513 117.292 -1.864 H 1 NIL_1    0.000
144 H_23532 158.454 118.792 -2.800 H 1 NIL_1    0.000
145 H_23511 159.862 120.373 0.500 H 1 NIL_1    0.000
146 H_23512 159.593 121.072 -1.123 H 1 NIL_1    0.000
147 H_24341 163.578 119.261 -2.564 H 1 NIL_1    0.000
148 H_24342 163.343 117.562 -2.947 H 1 NIL_1    0.000
149 H_2432 164.919 116.090 -2.136 H 1 NIL_1    0.000
150 H_2423 164.378 119.716 -0.086 H 1 NIL_1    0.000
151 H_2426 166.739 115.531 -0.661 H 1 NIL_1    0.000
152 H_2424 166.201 119.146 1.389 H 1 NIL_1    0.000
153 H_2425 167.384 117.053 1.108 H 1 NIL_1    0.000
154 HH 150.749 117.244 1.291 H 1 NIL_1    0.000
155 HH 154.451 128.431 2.623 H 1 NIL_1    0.000
156 HH 159.835 117.587 0.608 H 1 NIL_1    0.000
@<TRIPOS>BOND
1 1 2 1 
2 1 153 1 
3 2 4 2 
4 2 152 1 
5 3 1 2 
6 3 151 1 
7 4 150 1 
8 5 3 1 
9 5 6 2 
10 5 149 1 
11 6 4 1 
12 6 7 1 
13 7 147 1 
14 7 148 1 
15 8 9 1 
16 8 7 1 
17 9 11 1 
18 9 12 2 
19 10 8 1 
20 10 14 2 
21 11 15 1 
22 13 10 1 
23 13 11 1 
24 13 156 1 
25 15 145 1 
26 15 146 1 
27 16 11 1 
28 16 18 1 
29 16 143 1 
30 16 144 1 
31 17 15 1 
32 17 18 1 
33 18 142 1 
34 19 17 1 
35 20 18 1 
36 21 19 2 
37 22 25 1 
38 22 19 1 
39 22 140 1 
40 22 141 1 
41 23 20 2 
42 24 20 1 
43 24 27 1 
44 25 28 1 
45 26 24 1 
46 26 30 1 
47 26 138 1 
48 26 139 1 
49 27 136 1 
50 27 137 1 
51 28 32 1 
52 29 25 1 
53 29 134 1 
54 29 135 1 
55 31 27 1 
56 31 133 1 
57 32 132 1 
58 33 28 2 
59 34 29 1 
60 34 131 1 
61 35 30 2 
62 36 43 1 
63 36 44 1 
64 36 30 1 
65 37 31 1 
66 37 128 1 
67 37 129 1 
68 37 130 1 
69 38 31 1 
70 38 125 1 
71 38 126 1 
72 38 127 1 
73 39 45 1 
74 39 32 1 
75 39 123 1 
76 39 124 1 
77 40 46 1 
78 40 32 1 
79 41 34 1 
80 41 120 1 
81 41 121 1 
82 41 122 1 
83 42 34 1 
84 42 117 1 
85 42 118 1 
86 42 119 1 
87 43 115 1 
88 43 116 1 
89 44 114 1 
90 45 46 1 
91 46 113 1 
92 47 40 1 
93 48 43 1 
94 49 44 1 
95 50 48 1 
96 50 44 1 
97 51 45 1 
98 51 60 2 
99 52 61 1 
100 52 45 1 
101 52 155 1 
102 53 47 2 
103 54 58 1 
104 54 47 1 
105 55 48 1 
106 55 63 2 
107 56 64 1 
108 56 48 1 
109 56 154 1 
110 57 49 2 
111 58 49 1 
112 58 65 1 
113 59 51 1 
114 59 66 1 
115 61 59 1 
116 61 67 2 
117 62 55 1 
118 62 68 1 
119 64 62 1 
120 69 64 2 
121 70 65 1 
122 71 66 1 
123 72 68 1 
124 73 70 1 
125 74 70 1 
126 74 95 1 
127 74 96 1 
128 74 97 1 
129 75 71 2 
130 76 80 2 
131 76 71 1 
132 76 93 1 
133 77 72 2 
134 78 82 2 
135 78 72 1 
136 79 75 1 
137 80 83 1 
138 80 89 1 
139 81 77 1 
140 82 84 1 
141 83 79 2 
142 84 81 2 
143 85 84 1 
144 86 83 1 
145 87 82 1 
146 88 81 1 
147 90 79 1 
148 91 78 1 
149 92 77 1 
150 94 75 1 
151 98 73 1 
152 99 73 1 
153 100 73 1 
154 101 70 1 
155 102 68 1 
156 103 68 1 
157 104 66 1 
158 105 66 1 
159 106 65 1 
160 107 65 1 
161 108 54 1 
162 109 54 1 
163 110 50 1 
164 111 50 1 
165 112 46 1 
@<TRIPOS>SUBSTRUCTURE
1 NIL_1 1 RESIDUE 1 A NIL 1
