@<TRIPOS>MOLECULE
NIL
162 171 1 0 0
POLYMER
CHARGES


@<TRIPOS>ATOM
1 O 114.334 74.1482 -2.72655 O.2 1 NIL_1    0.000
2 C_1833 114.848 73.956 -1.642 C.2 1 NIL_1    0.000
3 BP 116.258 74.489 -1.360 C.3 1 NIL_1    0.000
4 N 114.142 73.354 -0.648 N.am 1 NIL_1    0.000
5 C_1815 117.235 73.498 -0.692 C.3 1 NIL_1    0.000
6 N 116.370 75.756 -0.594 N.am 1 NIL_1    0.000
7 C_1835 112.730 73.790 -0.473 C.3 1 NIL_1    0.000
8 C_1870 114.393 71.913 -0.407 C.3 1 NIL_1    0.000
9 BQ 118.357 74.413 -0.194 C.3 1 NIL_1    0.000
10 C_1813 117.621 75.707 0.193 C.3 1 NIL_1    0.000
11 C_1830 115.556 76.845 -0.715 C.2 1 NIL_1    0.000
12 C_1844 111.900 73.322 0.730 C.2 1 NIL_1    0.000
13 C_1873 113.378 70.951 -1.058 C.3 1 NIL_1    0.000
14 C_1850 119.409 74.639 -1.259 C.2 1 NIL_1    0.000
15 NH 119.201 73.840 0.842 N.am 1 NIL_1    0.000
16 O 114.564 76.824 -1.418 O.2 1 NIL_1    0.000
17 C_1829 115.932 78.092 0.082 C.3 1 NIL_1    0.000
18 O 112.303 72.527 1.558 O.2 1 NIL_1    0.000
19 N 110.628 73.801 0.805 N.am 1 NIL_1    0.000
20 O 113.839 69.608 -0.812 O.3 1 NIL_1    0.000
21 N 120.593 74.168 -0.800 N.am 1 NIL_1    0.000
22 O 119.231 75.142 -2.352 O.2 1 NIL_1    0.000
23 C_1852 120.480 73.679 0.461 C.2 1 NIL_1    0.000
24 N 115.188 79.323 -0.300 N.am 1 NIL_1    0.000
25 C_1825 109.533 73.143 1.542 C.3 1 NIL_1    0.000
26 AP 110.082 74.974 0.082 C.3 1 NIL_1    0.000
27 C_1875 112.946 68.566 -1.246 C.3 1 NIL_1    0.000
28 C_1864 121.803 74.118 -1.648 C.3 1 NIL_1    0.000
29 O 121.351 73.179 1.145 O.2 1 NIL_1    0.000
30 C_1838 114.252 79.864 0.537 C.2 1 NIL_1    0.000
31 C_1871 115.429 79.804 -1.691 C.3 1 NIL_1    0.000
32 AQ 108.222 73.749 1.004 C.3 1 NIL_1    0.000
33 C_1843 110.847 76.270 0.328 C.2 1 NIL_1    0.000
34 C_1827 108.628 75.152 0.551 C.3 1 NIL_1    0.000
35 C_1865 123.159 73.946 -0.989 C.2 1 NIL_1    0.000
36 CP 113.275 80.904 -0.016 C.3 1 NIL_1    0.000
37 O 114.162 79.510 1.699 O.2 1 NIL_1    0.000
38 C_1876 116.856 79.662 -2.279 C.3 1 NIL_1    0.000
39 C_1846 107.620 73.000 -0.163 C.2 1 NIL_1    0.000
40 NH 107.083 73.731 1.906 N.am 1 NIL_1    0.000
41 O 111.399 76.456 1.398 O.2 1 NIL_1    0.000
42 N 110.888 77.225 -0.650 N.am 1 NIL_1    0.000
43 C_2196 123.777 74.988 -0.427 C.2 1 NIL_1    0.000
44 C_2188 123.761 72.753 -0.964 C.2 1 NIL_1    0.000
45 C_1818 113.697 82.322 0.423 C.3 1 NIL_1    0.000
46 N 111.879 80.700 0.429 N.am 1 NIL_1    0.000
47 O 117.715 80.758 -1.870 O.3 1 NIL_1    0.000
48 N 106.302 72.819 0.093 N.am 1 NIL_1    0.000
49 O 108.198 72.658 -1.177 O.2 1 NIL_1    0.000
50 C_1848 105.967 73.249 1.332 C.2 1 NIL_1    0.000
51 C_1840 111.742 78.419 -0.499 C.3 1 NIL_1    0.000
52 C_1872 110.288 77.144 -2.000 C.3 1 NIL_1    0.000
53 C_2194 124.968 74.837 0.154 C.2 1 NIL_1    0.000
54 C_2190 124.953 72.599 -0.380 C.2 1 NIL_1    0.000
55 CQ 112.368 83.057 0.631 C.3 1 NIL_1    0.000
56 C_1816 111.373 81.950 1.013 C.3 1 NIL_1    0.000
57 C_1841 111.123 79.576 0.277 C.2 1 NIL_1    0.000
58 C_1878 118.060 80.881 -0.472 C.3 1 NIL_1    0.000
59 C_1866 105.321 72.433 -0.936 C.3 1 NIL_1    0.000
60 O 104.862 73.232 1.839 O.2 1 NIL_1    0.000
61 C_1879 108.961 77.909 -2.127 C.3 1 NIL_1    0.000
62 C_2192 125.568 73.644 0.192 C.2 1 NIL_1    0.000
63 C_1854 111.931 83.809 -0.605 C.2 1 NIL_1    0.000
64 NH 112.418 84.163 1.570 N.am 1 NIL_1    0.000
65 O 109.995 79.514 0.728 O.2 1 NIL_1    0.000
66 C_1867 104.396 71.283 -0.596 C.2 1 NIL_1    0.000
67 O 108.619 77.919 -3.528 O.3 1 NIL_1    0.000
68 O 126.790 73.566 0.816 O.3 1 NIL_1    0.000
69 N 111.787 85.117 -0.282 N.am 1 NIL_1    0.000
70 O 111.728 83.330 -1.705 O.2 1 NIL_1    0.000
71 C_1856 112.061 85.340 1.030 C.2 1 NIL_1    0.000
72 C_2172 104.852 70.029 -0.546 C.2 1 NIL_1    0.000
73 C_2180 103.099 71.504 -0.362 C.2 1 NIL_1    0.000
74 C_1881 107.339 78.497 -3.851 C.3 1 NIL_1    0.000
75 C_2269 127.313 72.271 1.206 C.3 1 NIL_1    0.000
76 C_1868 111.318 86.122 -1.259 C.3 1 NIL_1    0.000
77 O 111.997 86.388 1.640 O.2 1 NIL_1    0.000
78 C_2174 104.029 69.018 -0.259 C.2 1 NIL_1    0.000
79 C_2178 102.274 70.497 -0.075 C.2 1 NIL_1    0.000
80 C_1869 111.460 87.591 -0.911 C.2 1 NIL_1    0.000
81 C_2176 102.732 69.237 -0.022 C.2 1 NIL_1    0.000
82 C_2204 112.612 88.236 -1.114 C.2 1 NIL_1    0.000
83 C_2212 110.433 88.263 -0.383 C.2 1 NIL_1    0.000
84 O 101.942 68.151 0.267 O.3 1 NIL_1    0.000
85 C_2206 112.738 89.526 -0.795 C.2 1 NIL_1    0.000
86 C_2210 110.557 89.551 -0.060 C.2 1 NIL_1    0.000
87 C_2273 100.500 68.276 0.177 C.3 1 NIL_1    0.000
88 C_2208 111.708 90.199 -0.261 C.2 1 NIL_1    0.000
89 O 111.760 91.524 0.101 O.3 1 NIL_1    0.000
90 C_2271 112.886 92.335 -0.314 C.3 1 NIL_1    0.000
91 H_22711 113.805 91.950 0.134 H 1 NIL_1    0.000
92 H_22712 112.722 93.360 0.027 H 1 NIL_1    0.000
93 H_22713 112.962 92.320 -1.405 H 1 NIL_1    0.000
94 H_22731 100.138 68.966 0.945 H 1 NIL_1    0.000
95 H_22732 100.052 67.293 0.340 H 1 NIL_1    0.000
96 H_22733 100.227 68.640 -0.818 H 1 NIL_1    0.000
97 H_2210 109.707 90.076 0.372 H 1 NIL_1    0.000
98 H_2206 113.697 90.006 -0.975 H 1 NIL_1    0.000
99 H_2212 109.487 87.758 -0.207 H 1 NIL_1    0.000
100 H_2204 113.463 87.710 -1.540 H 1 NIL_1    0.000
101 H_2178 101.229 70.729 0.113 H 1 NIL_1    0.000
102 H_2174 104.423 68.004 -0.223 H 1 NIL_1    0.000
103 H_18681 110.262 85.912 -1.453 H 1 NIL_1    0.000
104 H_18682 111.852 85.944 -2.197 H 1 NIL_1    0.000
105 H_22691 126.584 71.758 1.839 H 1 NIL_1    0.000
106 H_22692 128.239 72.419 1.768 H 1 NIL_1    0.000
107 H_22693 127.527 71.675 0.314 H 1 NIL_1    0.000
108 H_18811 107.256 78.579 -4.938 H 1 NIL_1    0.000
109 H_18812 107.264 79.490 -3.400 H 1 NIL_1    0.000
110 H_18813 106.546 77.849 -3.465 H 1 NIL_1    0.000
111 H_2180 102.703 72.517 -0.404 H 1 NIL_1    0.000
112 H_2172 105.902 69.826 -0.744 H 1 NIL_1    0.000
113 H_18791 108.169 77.419 -1.554 H 1 NIL_1    0.000
114 H_18792 109.071 78.942 -1.785 H 1 NIL_1    0.000
115 H_18661 105.852 72.185 -1.858 H 1 NIL_1    0.000
116 H_18662 104.719 73.321 -1.151 H 1 NIL_1    0.000
117 H_18781 118.468 79.935 -0.106 H 1 NIL_1    0.000
118 H_18782 117.173 81.157 0.103 H 1 NIL_1    0.000
119 H_18783 118.816 81.664 -0.368 H 1 NIL_1    0.000
120 H_18161 111.341 81.838 2.100 H 1 NIL_1    0.000
121 H_18162 110.372 82.179 0.638 H 1 NIL_1    0.000
122 H_2190 125.406 71.612 -0.386 H 1 NIL_1    0.000
123 H_2194 125.452 75.698 0.607 H 1 NIL_1    0.000
124 H_18721 110.122 76.112 -2.303 H 1 NIL_1    0.000
125 H_18722 110.992 77.559 -2.727 H 1 NIL_1    0.000
126 H_18401 112.044 78.808 -1.474 H 1 NIL_1    0.000
127 H_18402 112.643 78.099 0.022 H 1 NIL_1    0.000
128 H_18181 114.244 82.281 1.370 H 1 NIL_1    0.000
129 H_18182 114.334 82.808 -0.319 H 1 NIL_1    0.000
130 H_2188 123.279 71.892 -1.420 H 1 NIL_1    0.000
131 H_2196 123.305 75.968 -0.439 H 1 NIL_1    0.000
132 H_18761 117.318 78.704 -2.038 H 1 NIL_1    0.000
133 H_18762 116.774 79.723 -3.367 H 1 NIL_1    0.000
134 HP 113.245 80.854 -1.106 H 1 NIL_1    0.000
135 H_18271 108.587 75.835 1.405 H 1 NIL_1    0.000
136 H_18272 107.982 75.545 -0.237 H 1 NIL_1    0.000
137 H_18711 115.179 80.866 -1.757 H 1 NIL_1    0.000
138 H_18712 114.738 79.267 -2.345 H 1 NIL_1    0.000
139 H_18641 121.831 75.040 -2.235 H 1 NIL_1    0.000
140 H_18642 121.653 73.305 -2.363 H 1 NIL_1    0.000
141 H_18751 112.019 68.627 -0.671 H 1 NIL_1    0.000
142 H_18752 113.426 67.600 -1.073 H 1 NIL_1    0.000
143 H_18753 112.734 68.687 -2.312 H 1 NIL_1    0.000
144 HP 110.106 74.713 -0.973 H 1 NIL_1    0.000
145 H_18251 109.640 73.368 2.607 H 1 NIL_1    0.000
146 H_18252 109.558 72.060 1.394 H 1 NIL_1    0.000
147 H_18291 115.765 77.847 1.133 H 1 NIL_1    0.000
148 H_18292 117.000 78.272 -0.033 H 1 NIL_1    0.000
149 H_18731 112.382 71.068 -0.624 H 1 NIL_1    0.000
150 H_18732 113.337 71.123 -2.138 H 1 NIL_1    0.000
151 H_18131 117.365 75.685 1.257 H 1 NIL_1    0.000
152 H_18132 118.250 76.575 -0.016 H 1 NIL_1    0.000
153 H_18701 114.449 71.730 0.667 H 1 NIL_1    0.000
154 H_18702 115.367 71.652 -0.826 H 1 NIL_1    0.000
155 H_18351 112.163 73.503 -1.364 H 1 NIL_1    0.000
156 H_18352 112.756 74.878 -0.431 H 1 NIL_1    0.000
157 H_18151 116.772 73.024 0.174 H 1 NIL_1    0.000
158 H_18152 117.589 72.725 -1.378 H 1 NIL_1    0.000
159 HP 116.663 74.705 -2.353 H 1 NIL_1    0.000
160 HH 112.661 84.039 2.542 H 1 NIL_1    0.000
161 HH 107.106 74.156 2.820 H 1 NIL_1    0.000
162 HH 118.841 73.540 1.736 H 1 NIL_1    0.000
@<TRIPOS>BOND
1 2 3 1 
2 2 1 2 
3 2 4 1 
4 3 159 1 
5 5 9 1 
6 5 3 1 
7 5 157 1 
8 5 158 1 
9 6 10 1 
10 6 11 1 
11 6 3 1 
12 7 4 1 
13 7 12 1 
14 8 4 1 
15 8 13 1 
16 9 10 1 
17 9 14 1 
18 9 15 1 
19 10 151 1 
20 10 152 1 
21 15 23 1 
22 16 11 2 
23 17 24 1 
24 17 11 1 
25 18 12 2 
26 19 25 1 
27 19 12 1 
28 20 13 1 
29 21 14 1 
30 22 14 2 
31 23 21 1 
32 26 34 1 
33 26 19 1 
34 26 144 1 
35 27 20 1 
36 28 21 1 
37 28 35 1 
38 29 23 2 
39 30 36 1 
40 30 37 2 
41 30 24 1 
42 31 24 1 
43 31 38 1 
44 32 25 1 
45 33 26 1 
46 33 41 2 
47 33 42 1 
48 34 32 1 
49 35 43 1 
50 36 45 1 
51 36 134 1 
52 39 32 1 
53 40 50 1 
54 40 32 1 
55 44 54 1 
56 44 35 2 
57 45 55 1 
58 46 56 1 
59 46 57 1 
60 46 36 1 
61 47 38 1 
62 48 39 1 
63 49 39 2 
64 50 48 1 
65 51 42 1 
66 51 57 1 
67 52 42 1 
68 53 43 2 
69 53 62 1 
70 54 62 2 
71 56 55 1 
72 56 120 1 
73 56 121 1 
74 58 47 1 
75 59 48 1 
76 60 50 2 
77 61 52 1 
78 62 68 1 
79 63 55 1 
80 64 71 1 
81 64 55 1 
82 65 57 2 
83 66 59 1 
84 66 72 2 
85 66 73 1 
86 67 61 1 
87 69 63 1 
88 70 63 2 
89 71 69 1 
90 73 79 2 
91 74 67 1 
92 75 68 1 
93 76 69 1 
94 77 71 2 
95 78 72 1 
96 79 81 1 
97 80 76 1 
98 81 78 2 
99 82 80 2 
100 83 86 2 
101 83 80 1 
102 84 81 1 
103 85 82 1 
104 86 88 1 
105 87 84 1 
106 88 85 2 
107 89 88 1 
108 90 89 1 
109 91 90 1 
110 92 90 1 
111 93 90 1 
112 94 87 1 
113 95 87 1 
114 96 87 1 
115 97 86 1 
116 98 85 1 
117 99 83 1 
118 100 82 1 
119 101 79 1 
120 102 78 1 
121 103 76 1 
122 104 76 1 
123 105 75 1 
124 106 75 1 
125 107 75 1 
126 108 74 1 
127 109 74 1 
128 110 74 1 
129 111 73 1 
130 112 72 1 
131 113 61 1 
132 114 61 1 
133 115 59 1 
134 116 59 1 
135 117 58 1 
136 118 58 1 
137 119 58 1 
138 122 54 1 
139 123 53 1 
140 124 52 1 
141 125 52 1 
142 126 51 1 
143 127 51 1 
144 128 45 1 
145 129 45 1 
146 130 44 1 
147 131 43 1 
148 132 38 1 
149 133 38 1 
150 135 34 1 
151 136 34 1 
152 137 31 1 
153 138 31 1 
154 139 28 1 
155 140 28 1 
156 141 27 1 
157 142 27 1 
158 143 27 1 
159 145 25 1 
160 146 25 1 
161 147 17 1 
162 148 17 1 
163 149 13 1 
164 150 13 1 
165 153 8 1 
166 154 8 1 
167 155 7 1 
168 156 7 1 
169 160 64 1 
170 161 40 1 
171 162 15 1 
@<TRIPOS>SUBSTRUCTURE
1 NIL_1 1 RESIDUE 1 A NIL 1
