@<TRIPOS>MOLECULE
NIL
162 171 1 0 0
POLYMER
CHARGES


@<TRIPOS>ATOM
1 AP 110.22 74.8627 0.389771 C.3 1 NIL_1    0.000
2 C_1843 110.978 76.124 0.832 C.2 1 NIL_1    0.000
3 C_1827 108.829 74.737 1.052 C.3 1 NIL_1    0.000
4 N 110.909 73.577 0.696 N.am 1 NIL_1    0.000
5 O 111.978 76.026 1.523 O.2 1 NIL_1    0.000
6 N 110.552 77.360 0.423 N.am 1 NIL_1    0.000
7 AQ 108.564 73.238 1.080 C.3 1 NIL_1    0.000
8 C_1825 109.956 72.650 1.333 C.3 1 NIL_1    0.000
9 C_1844 112.186 73.214 0.401 C.2 1 NIL_1    0.000
10 C_1840 111.443 78.533 0.621 C.3 1 NIL_1    0.000
11 C_1872 109.124 77.721 0.236 C.3 1 NIL_1    0.000
12 C_1846 107.948 72.802 -0.230 C.2 1 NIL_1    0.000
13 NH 107.504 72.839 1.987 N.am 1 NIL_1    0.000
14 O 112.722 72.326 1.034 O.2 1 NIL_1    0.000
15 C_1835 112.848 73.912 -0.785 C.3 1 NIL_1    0.000
16 C_1841 111.188 79.811 -0.178 C.2 1 NIL_1    0.000
17 C_1879 108.561 77.395 -1.163 C.3 1 NIL_1    0.000
18 N 106.691 72.369 0.020 N.am 1 NIL_1    0.000
19 O 108.467 72.857 -1.329 O.2 1 NIL_1    0.000
20 C_1848 106.405 72.402 1.349 C.2 1 NIL_1    0.000
21 N 114.241 73.546 -1.145 N.am 1 NIL_1    0.000
22 O 110.517 79.857 -1.190 O.2 1 NIL_1    0.000
23 N 111.755 80.935 0.318 N.am 1 NIL_1    0.000
24 O 107.166 77.758 -1.168 O.3 1 NIL_1    0.000
25 C_1866 105.760 72.014 -1.071 C.3 1 NIL_1    0.000
26 O 105.362 72.108 1.898 O.2 1 NIL_1    0.000
27 C_1833 114.904 74.363 -2.000 C.2 1 NIL_1    0.000
28 C_1870 114.501 72.092 -1.274 C.3 1 NIL_1    0.000
29 C_1816 111.054 82.227 0.339 C.3 1 NIL_1    0.000
30 CP 113.201 81.198 0.210 C.3 1 NIL_1    0.000
31 C_1881 106.471 77.478 -2.399 C.3 1 NIL_1    0.000
32 C_1867 104.492 71.266 -0.715 C.2 1 NIL_1    0.000
33 BP 116.245 74.950 -1.562 C.3 1 NIL_1    0.000
34 O 114.402 74.688 -3.059 O.2 1 NIL_1    0.000
35 C_1873 113.450 71.314 -2.091 C.3 1 NIL_1    0.000
36 CQ 112.115 83.341 0.376 C.3 1 NIL_1    0.000
37 C_1838 114.076 80.161 0.907 C.2 1 NIL_1    0.000
38 C_1818 113.434 82.629 0.720 C.3 1 NIL_1    0.000
39 C_2172 104.533 69.958 -0.449 C.2 1 NIL_1    0.000
40 C_2180 103.318 71.900 -0.651 C.2 1 NIL_1    0.000
41 C_1815 117.267 73.918 -1.038 C.3 1 NIL_1    0.000
42 N 116.197 76.026 -0.544 N.am 1 NIL_1    0.000
43 O 113.894 69.947 -2.223 O.3 1 NIL_1    0.000
44 C_1854 112.171 84.076 -0.943 C.2 1 NIL_1    0.000
45 NH 111.774 84.453 1.247 N.am 1 NIL_1    0.000
46 O 113.930 79.936 2.094 O.2 1 NIL_1    0.000
47 N 114.955 79.428 0.160 N.am 1 NIL_1    0.000
48 C_2174 103.425 69.293 -0.119 C.2 1 NIL_1    0.000
49 C_2178 102.208 71.238 -0.320 C.2 1 NIL_1    0.000
50 BQ 118.278 74.785 -0.278 C.3 1 NIL_1    0.000
51 C_1813 117.446 75.974 0.234 C.3 1 NIL_1    0.000
52 C_1830 115.252 77.004 -0.444 C.2 1 NIL_1    0.000
53 C_1875 112.999 69.092 -2.962 C.3 1 NIL_1    0.000
54 N 111.858 85.376 -0.721 N.am 1 NIL_1    0.000
55 O 112.432 83.583 -2.024 O.2 1 NIL_1    0.000
56 C_1856 111.607 85.613 0.591 C.2 1 NIL_1    0.000
57 C_1829 115.433 78.096 0.609 C.3 1 NIL_1    0.000
58 C_1871 115.618 79.876 -1.093 C.3 1 NIL_1    0.000
59 C_2176 102.246 69.931 -0.051 C.2 1 NIL_1    0.000
60 C_1850 119.440 75.229 -1.142 C.2 1 NIL_1    0.000
61 NH 119.020 74.110 0.773 N.am 1 NIL_1    0.000
62 O 114.272 77.020 -1.166 O.2 1 NIL_1    0.000
63 C_1868 111.749 86.376 -1.802 C.3 1 NIL_1    0.000
64 O 111.288 86.666 1.108 O.2 1 NIL_1    0.000
65 C_1876 117.104 80.240 -0.901 C.3 1 NIL_1    0.000
66 O 101.063 69.323 0.286 O.3 1 NIL_1    0.000
67 N 120.593 74.862 -0.531 N.am 1 NIL_1    0.000
68 O 119.362 75.816 -2.204 O.2 1 NIL_1    0.000
69 C_1852 120.352 74.212 0.637 C.2 1 NIL_1    0.000
70 C_1869 112.205 87.780 -1.454 C.2 1 NIL_1    0.000
71 O 117.767 80.211 -2.185 O.3 1 NIL_1    0.000
72 C_2273 100.973 67.878 0.251 C.3 1 NIL_1    0.000
73 C_1864 121.934 75.192 -1.063 C.3 1 NIL_1    0.000
74 O 121.164 73.795 1.439 O.2 1 NIL_1    0.000
75 C_2204 113.502 88.054 -1.291 C.2 1 NIL_1    0.000
76 C_2212 111.315 88.765 -1.301 C.2 1 NIL_1    0.000
77 C_1878 118.236 78.911 -2.614 C.3 1 NIL_1    0.000
78 C_1865 123.062 74.237 -0.714 C.2 1 NIL_1    0.000
79 C_2206 113.900 89.287 -0.970 C.2 1 NIL_1    0.000
80 C_2210 111.710 89.997 -0.979 C.2 1 NIL_1    0.000
81 C_2196 123.017 72.953 -1.085 C.2 1 NIL_1    0.000
82 C_2188 124.114 74.662 -0.008 C.2 1 NIL_1    0.000
83 C_2208 113.010 90.269 -0.803 C.2 1 NIL_1    0.000
84 C_2194 123.990 72.110 -0.735 C.2 1 NIL_1    0.000
85 C_2190 125.089 73.823 0.342 C.2 1 NIL_1    0.000
86 O 113.483 91.513 -0.464 O.3 1 NIL_1    0.000
87 C_2192 125.030 72.529 -0.009 C.2 1 NIL_1    0.000
88 C_2271 112.611 92.409 0.267 C.3 1 NIL_1    0.000
89 O 125.980 71.600 0.333 O.3 1 NIL_1    0.000
90 C_2269 126.878 71.884 1.434 C.3 1 NIL_1    0.000
91 H_22691 127.467 70.989 1.647 H 1 NIL_1    0.000
92 H_22692 126.297 72.156 2.320 H 1 NIL_1    0.000
93 H_22693 127.549 72.701 1.156 H 1 NIL_1    0.000
94 H_22711 113.194 93.277 0.586 H 1 NIL_1    0.000
95 H_22712 112.214 91.895 1.147 H 1 NIL_1    0.000
96 H_22713 111.794 92.743 -0.377 H 1 NIL_1    0.000
97 H_2190 125.920 74.216 0.922 H 1 NIL_1    0.000
98 H_2194 123.927 71.066 -1.036 H 1 NIL_1    0.000
99 H_2188 124.179 75.704 0.299 H 1 NIL_1    0.000
100 H_2196 122.174 72.583 -1.664 H 1 NIL_1    0.000
101 H_2210 110.950 90.767 -0.865 H 1 NIL_1    0.000
102 H_2206 114.962 89.487 -0.837 H 1 NIL_1    0.000
103 H_18781 118.575 78.985 -3.650 H 1 NIL_1    0.000
104 H_18782 117.431 78.176 -2.539 H 1 NIL_1    0.000
105 H_18783 119.071 78.605 -1.982 H 1 NIL_1    0.000
106 H_2212 110.254 88.568 -1.433 H 1 NIL_1    0.000
107 H_2204 114.242 87.266 -1.414 H 1 NIL_1    0.000
108 H_18641 122.187 76.194 -0.703 H 1 NIL_1    0.000
109 H_18642 121.866 75.251 -2.152 H 1 NIL_1    0.000
110 H_22731 101.292 67.517 -0.731 H 1 NIL_1    0.000
111 H_22732 99.934 67.589 0.423 H 1 NIL_1    0.000
112 H_22733 101.603 67.451 1.036 H 1 NIL_1    0.000
113 H_18761 117.178 81.246 -0.483 H 1 NIL_1    0.000
114 H_18762 117.611 79.540 -0.235 H 1 NIL_1    0.000
115 H_18681 110.704 86.402 -2.122 H 1 NIL_1    0.000
116 H_18682 112.339 86.033 -2.657 H 1 NIL_1    0.000
117 H_18711 115.140 80.758 -1.511 H 1 NIL_1    0.000
118 H_18712 115.529 79.092 -1.845 H 1 NIL_1    0.000
119 H_18291 114.867 77.761 1.482 H 1 NIL_1    0.000
120 H_18292 116.480 78.179 0.896 H 1 NIL_1    0.000
121 H_18751 112.886 69.475 -3.979 H 1 NIL_1    0.000
122 H_18752 112.026 69.068 -2.464 H 1 NIL_1    0.000
123 H_18753 113.418 68.082 -3.000 H 1 NIL_1    0.000
124 H_18131 117.193 75.824 1.286 H 1 NIL_1    0.000
125 H_18132 118.003 76.908 0.118 H 1 NIL_1    0.000
126 H_2178 101.262 71.774 -0.267 H 1 NIL_1    0.000
127 H_2174 103.510 68.231 0.095 H 1 NIL_1    0.000
128 H_18151 116.797 73.237 -0.327 H 1 NIL_1    0.000
129 H_18152 117.725 73.330 -1.837 H 1 NIL_1    0.000
130 H_2180 103.259 72.965 -0.862 H 1 NIL_1    0.000
131 H_2172 105.480 69.425 -0.494 H 1 NIL_1    0.000
132 H_18181 113.579 82.622 1.803 H 1 NIL_1    0.000
133 H_18182 114.302 83.097 0.250 H 1 NIL_1    0.000
134 H_18731 112.479 71.319 -1.588 H 1 NIL_1    0.000
135 H_18732 113.351 71.753 -3.088 H 1 NIL_1    0.000
136 HP 116.670 75.396 -2.466 H 1 NIL_1    0.000
137 H_18811 106.950 78.027 -3.213 H 1 NIL_1    0.000
138 H_18812 105.431 77.799 -2.297 H 1 NIL_1    0.000
139 H_18813 106.508 76.404 -2.597 H 1 NIL_1    0.000
140 HP 113.394 81.182 -0.861 H 1 NIL_1    0.000
141 H_18161 110.440 82.260 1.244 H 1 NIL_1    0.000
142 H_18162 110.404 82.331 -0.536 H 1 NIL_1    0.000
143 H_18701 114.606 71.650 -0.281 H 1 NIL_1    0.000
144 H_18702 115.460 71.956 -1.780 H 1 NIL_1    0.000
145 H_18661 106.314 71.409 -1.792 H 1 NIL_1    0.000
146 H_18662 105.491 72.943 -1.581 H 1 NIL_1    0.000
147 H_18791 109.083 77.961 -1.939 H 1 NIL_1    0.000
148 H_18792 108.648 76.330 -1.384 H 1 NIL_1    0.000
149 H_18351 112.201 73.741 -1.650 H 1 NIL_1    0.000
150 H_18352 112.837 74.981 -0.576 H 1 NIL_1    0.000
151 H_18721 108.977 78.787 0.420 H 1 NIL_1    0.000
152 H_18722 108.532 77.235 1.010 H 1 NIL_1    0.000
153 H_18401 112.460 78.222 0.381 H 1 NIL_1    0.000
154 H_18402 111.409 78.804 1.681 H 1 NIL_1    0.000
155 H_18251 110.161 72.613 2.405 H 1 NIL_1    0.000
156 H_18252 110.040 71.650 0.901 H 1 NIL_1    0.000
157 H_18271 108.863 75.125 2.074 H 1 NIL_1    0.000
158 H_18272 108.038 75.246 0.499 H 1 NIL_1    0.000
159 HP 110.107 74.921 -0.696 H 1 NIL_1    0.000
160 HH 118.570 73.692 1.573 H 1 NIL_1    0.000
161 HH 111.652 84.345 2.243 H 1 NIL_1    0.000
162 HH 107.558 72.978 2.985 H 1 NIL_1    0.000
@<TRIPOS>BOND
1 1 159 1 
2 2 1 1 
3 3 7 1 
4 3 1 1 
5 3 157 1 
6 3 158 1 
7 4 8 1 
8 4 1 1 
9 4 9 1 
10 5 2 2 
11 6 2 1 
12 7 8 1 
13 8 155 1 
14 8 156 1 
15 10 6 1 
16 10 16 1 
17 10 153 1 
18 10 154 1 
19 11 6 1 
20 11 151 1 
21 11 152 1 
22 12 7 1 
23 13 20 1 
24 13 7 1 
25 13 162 1 
26 14 9 2 
27 15 21 1 
28 15 9 1 
29 15 149 1 
30 15 150 1 
31 16 23 1 
32 17 11 1 
33 17 147 1 
34 17 148 1 
35 18 12 1 
36 19 12 2 
37 20 18 1 
38 21 27 1 
39 22 16 2 
40 23 29 1 
41 23 30 1 
42 24 17 1 
43 25 18 1 
44 25 145 1 
45 25 146 1 
46 26 20 2 
47 27 33 1 
48 28 21 1 
49 28 143 1 
50 28 144 1 
51 29 141 1 
52 29 142 1 
53 31 24 1 
54 32 25 1 
55 34 27 2 
56 35 28 1 
57 36 29 1 
58 37 30 1 
59 38 36 1 
60 38 30 1 
61 39 32 2 
62 40 49 2 
63 40 32 1 
64 41 50 1 
65 41 33 1 
66 42 51 1 
67 42 33 1 
68 43 35 1 
69 44 36 1 
70 45 56 1 
71 45 36 1 
72 45 161 1 
73 46 37 2 
74 47 37 1 
75 48 39 1 
76 49 59 1 
77 50 51 1 
78 52 42 1 
79 53 43 1 
80 54 44 1 
81 55 44 2 
82 56 54 1 
83 57 47 1 
84 57 52 1 
85 58 47 1 
86 59 48 2 
87 59 66 1 
88 60 50 1 
89 61 69 1 
90 61 50 1 
91 61 160 1 
92 62 52 2 
93 63 54 1 
94 64 56 2 
95 65 58 1 
96 67 60 1 
97 68 60 2 
98 69 67 1 
99 70 63 1 
100 71 65 1 
101 72 66 1 
102 72 110 1 
103 72 111 1 
104 72 112 1 
105 73 67 1 
106 74 69 2 
107 75 70 2 
108 75 107 1 
109 76 70 1 
110 76 106 1 
111 77 71 1 
112 78 81 1 
113 78 73 1 
114 79 75 1 
115 79 102 1 
116 80 83 1 
117 80 76 2 
118 80 101 1 
119 81 100 1 
120 82 85 1 
121 82 78 2 
122 82 99 1 
123 83 79 2 
124 83 86 1 
125 84 81 2 
126 84 87 1 
127 84 98 1 
128 85 87 2 
129 85 97 1 
130 87 89 1 
131 88 86 1 
132 90 89 1 
133 91 90 1 
134 92 90 1 
135 93 90 1 
136 94 88 1 
137 95 88 1 
138 96 88 1 
139 103 77 1 
140 104 77 1 
141 105 77 1 
142 108 73 1 
143 109 73 1 
144 113 65 1 
145 114 65 1 
146 115 63 1 
147 116 63 1 
148 117 58 1 
149 118 58 1 
150 119 57 1 
151 120 57 1 
152 121 53 1 
153 122 53 1 
154 123 53 1 
155 124 51 1 
156 125 51 1 
157 126 49 1 
158 127 48 1 
159 128 41 1 
160 129 41 1 
161 130 40 1 
162 131 39 1 
163 132 38 1 
164 133 38 1 
165 134 35 1 
166 135 35 1 
167 136 33 1 
168 137 31 1 
169 138 31 1 
170 139 31 1 
171 140 30 1 
@<TRIPOS>SUBSTRUCTURE
1 NIL_1 1 RESIDUE 1 A NIL 1
