@<TRIPOS>MOLECULE
NIL
162 171 1 0 0
POLYMER
CHARGES


@<TRIPOS>ATOM
1 O 116.175 73.2149 1.38212 O.2 1 NIL_1    0.000
2 C_1833 115.320 73.546 0.582 C.2 1 NIL_1    0.000
3 BP 115.715 74.399 -0.627 C.3 1 NIL_1    0.000
4 N 114.026 73.120 0.736 N.am 1 NIL_1    0.000
5 C_1815 116.782 73.689 -1.488 C.3 1 NIL_1    0.000
6 N 116.318 75.679 -0.213 N.am 1 NIL_1    0.000
7 C_1835 112.863 73.689 -0.015 C.3 1 NIL_1    0.000
8 C_1870 113.764 71.851 1.465 C.3 1 NIL_1    0.000
9 BQ 118.127 74.259 -1.004 C.3 1 NIL_1    0.000
10 C_1813 117.778 75.627 -0.389 C.3 1 NIL_1    0.000
11 C_1830 115.584 76.738 0.215 C.2 1 NIL_1    0.000
12 C_1844 111.457 73.675 0.600 C.2 1 NIL_1    0.000
13 C_1873 113.421 70.682 0.527 C.3 1 NIL_1    0.000
14 C_1850 119.183 74.362 -2.083 C.2 1 NIL_1    0.000
15 NH 118.825 73.366 -0.091 N.am 1 NIL_1    0.000
16 O 114.384 76.630 0.354 O.2 1 NIL_1    0.000
17 C_1829 116.275 78.056 0.524 C.3 1 NIL_1    0.000
18 O 111.216 73.333 1.740 O.2 1 NIL_1    0.000
19 N 110.436 74.066 -0.209 N.am 1 NIL_1    0.000
20 O 113.136 69.524 1.339 O.3 1 NIL_1    0.000
21 N 120.249 73.612 -1.713 N.am 1 NIL_1    0.000
22 O 119.100 75.018 -3.104 O.2 1 NIL_1    0.000
23 C_1852 120.033 72.979 -0.536 C.2 1 NIL_1    0.000
24 N 115.507 79.213 -0.006 N.am 1 NIL_1    0.000
25 C_1825 109.035 73.684 0.031 C.3 1 NIL_1    0.000
26 AP 110.540 74.837 -1.465 C.3 1 NIL_1    0.000
27 C_1875 112.804 68.334 0.597 C.3 1 NIL_1    0.000
28 C_1864 121.496 73.500 -2.498 C.3 1 NIL_1    0.000
29 O 120.781 72.207 0.031 O.2 1 NIL_1    0.000
30 C_1838 114.426 79.692 0.683 C.2 1 NIL_1    0.000
31 C_1871 115.789 79.547 -1.433 C.3 1 NIL_1    0.000
32 AQ 108.234 74.000 -1.244 C.3 1 NIL_1    0.000
33 C_1843 111.162 76.248 -1.400 C.2 1 NIL_1    0.000
34 C_1827 109.164 74.825 -2.159 C.3 1 NIL_1    0.000
35 C_1865 122.814 73.689 -1.757 C.2 1 NIL_1    0.000
36 CP 113.517 80.725 0.013 C.3 1 NIL_1    0.000
37 O 114.194 79.332 1.822 O.2 1 NIL_1    0.000
38 C_1876 117.249 79.510 -1.950 C.3 1 NIL_1    0.000
39 C_1846 107.750 72.743 -1.931 C.2 1 NIL_1    0.000
40 NH 106.946 74.625 -0.986 N.am 1 NIL_1    0.000
41 O 112.067 76.474 -2.180 O.2 1 NIL_1    0.000
42 N 110.780 77.228 -0.505 N.am 1 NIL_1    0.000
43 C_2196 122.924 74.493 -0.692 C.2 1 NIL_1    0.000
44 C_2188 123.903 73.038 -2.176 C.2 1 NIL_1    0.000
45 C_1818 114.102 82.128 0.279 C.3 1 NIL_1    0.000
46 N 112.115 80.728 0.494 N.am 1 NIL_1    0.000
47 O 118.011 80.646 -1.472 O.3 1 NIL_1    0.000
48 N 106.400 72.799 -2.021 N.am 1 NIL_1    0.000
49 O 108.451 71.838 -2.344 O.2 1 NIL_1    0.000
50 C_1848 105.905 73.933 -1.470 C.2 1 NIL_1    0.000
51 C_1840 111.630 78.460 -0.379 C.3 1 NIL_1    0.000
52 C_1872 109.703 77.100 0.504 C.3 1 NIL_1    0.000
53 C_2194 124.087 74.629 -0.052 C.2 1 NIL_1    0.000
54 C_2190 125.068 73.177 -1.541 C.2 1 NIL_1    0.000
55 CQ 112.882 83.017 0.531 C.3 1 NIL_1    0.000
56 C_1816 111.806 82.055 1.052 C.3 1 NIL_1    0.000
57 C_1841 111.185 79.740 0.351 C.2 1 NIL_1    0.000
58 C_1878 118.508 80.591 -0.118 C.3 1 NIL_1    0.000
59 C_1866 105.580 71.795 -2.725 C.3 1 NIL_1    0.000
60 O 104.744 74.285 -1.421 O.2 1 NIL_1    0.000
61 C_1879 108.324 77.591 0.012 C.3 1 NIL_1    0.000
62 C_2192 125.175 73.967 -0.471 C.2 1 NIL_1    0.000
63 C_1854 112.431 83.729 -0.722 C.2 1 NIL_1    0.000
64 NH 113.137 84.172 1.375 N.am 1 NIL_1    0.000
65 O 110.056 79.939 0.755 O.2 1 NIL_1    0.000
66 C_1867 104.471 71.190 -1.888 C.2 1 NIL_1    0.000
67 O 107.386 77.487 1.102 O.3 1 NIL_1    0.000
68 O 126.409 74.048 0.128 O.3 1 NIL_1    0.000
69 N 112.466 85.063 -0.494 N.am 1 NIL_1    0.000
70 O 112.086 83.199 -1.762 O.2 1 NIL_1    0.000
71 C_1856 112.899 85.345 0.763 C.2 1 NIL_1    0.000
72 C_2172 104.727 70.215 -1.011 C.2 1 NIL_1    0.000
73 C_2180 103.214 71.622 -2.019 C.2 1 NIL_1    0.000
74 C_1881 106.049 77.927 0.791 C.3 1 NIL_1    0.000
75 C_2269 126.562 74.766 1.376 C.3 1 NIL_1    0.000
76 C_1868 112.075 86.044 -1.530 C.3 1 NIL_1    0.000
77 O 113.063 86.436 1.273 O.2 1 NIL_1    0.000
78 C_2174 103.747 69.682 -0.277 C.2 1 NIL_1    0.000
79 C_2178 102.235 71.095 -1.286 C.2 1 NIL_1    0.000
80 C_1869 111.912 87.501 -1.146 C.2 1 NIL_1    0.000
81 C_2176 102.485 70.118 -0.410 C.2 1 NIL_1    0.000
82 C_2204 112.936 88.352 -1.255 C.2 1 NIL_1    0.000
83 C_2212 110.742 87.958 -0.690 C.2 1 NIL_1    0.000
84 O 101.420 69.629 0.302 O.3 1 NIL_1    0.000
85 C_2206 112.802 89.632 -0.906 C.2 1 NIL_1    0.000
86 C_2210 110.605 89.238 -0.342 C.2 1 NIL_1    0.000
87 C_2273 101.572 68.425 1.091 C.3 1 NIL_1    0.000
88 C_2208 111.630 90.089 -0.439 C.2 1 NIL_1    0.000
89 O 111.413 91.387 -0.052 O.3 1 NIL_1    0.000
90 C_2271 112.548 92.255 0.180 C.3 1 NIL_1    0.000
91 H_22711 113.049 92.468 -0.768 H 1 NIL_1    0.000
92 H_22712 113.243 91.775 0.875 H 1 NIL_1    0.000
93 H_22713 112.185 93.189 0.615 H 1 NIL_1    0.000
94 H_22731 100.601 68.176 1.525 H 1 NIL_1    0.000
95 H_22732 102.294 68.599 1.893 H 1 NIL_1    0.000
96 H_22733 101.906 67.604 0.451 H 1 NIL_1    0.000
97 H_2210 109.644 89.588 0.031 H 1 NIL_1    0.000
98 H_2206 113.663 90.287 -1.010 H 1 NIL_1    0.000
99 H_2212 109.894 87.285 -0.597 H 1 NIL_1    0.000
100 H_2204 113.895 87.998 -1.628 H 1 NIL_1    0.000
101 H_2178 101.220 71.468 -1.408 H 1 NIL_1    0.000
102 H_2174 104.001 68.892 0.426 H 1 NIL_1    0.000
103 H_18681 111.125 85.702 -1.950 H 1 NIL_1    0.000
104 H_18682 112.816 85.977 -2.332 H 1 NIL_1    0.000
105 H_22691 125.904 74.333 2.135 H 1 NIL_1    0.000
106 H_22692 126.322 75.821 1.224 H 1 NIL_1    0.000
107 H_22693 127.601 74.675 1.703 H 1 NIL_1    0.000
108 H_18811 106.072 78.984 0.511 H 1 NIL_1    0.000
109 H_18812 105.421 77.798 1.677 H 1 NIL_1    0.000
110 H_18813 105.651 77.330 -0.033 H 1 NIL_1    0.000
111 H_2180 102.983 72.415 -2.727 H 1 NIL_1    0.000
112 H_2172 105.745 69.850 -0.891 H 1 NIL_1    0.000
113 H_18791 108.367 78.624 -0.332 H 1 NIL_1    0.000
114 H_18792 107.963 76.980 -0.812 H 1 NIL_1    0.000
115 H_18661 106.228 70.990 -3.084 H 1 NIL_1    0.000
116 H_18662 105.149 72.278 -3.606 H 1 NIL_1    0.000
117 H_18781 119.081 79.671 0.024 H 1 NIL_1    0.000
118 H_18782 117.675 80.624 0.587 H 1 NIL_1    0.000
119 H_18783 119.154 81.456 0.053 H 1 NIL_1    0.000
120 H_18161 111.848 81.990 2.142 H 1 NIL_1    0.000
121 H_18162 110.811 82.387 0.742 H 1 NIL_1    0.000
122 H_2190 125.938 72.634 -1.903 H 1 NIL_1    0.000
123 H_2194 124.123 75.288 0.812 H 1 NIL_1    0.000
124 H_18721 109.987 77.645 1.405 H 1 NIL_1    0.000
125 H_18722 109.612 76.075 0.828 H 1 NIL_1    0.000
126 H_18401 111.904 78.791 -1.385 H 1 NIL_1    0.000
127 H_18402 112.533 78.134 0.131 H 1 NIL_1    0.000
128 H_18181 114.720 82.109 1.181 H 1 NIL_1    0.000
129 H_18182 114.718 82.484 -0.549 H 1 NIL_1    0.000
130 H_2188 123.846 72.386 -3.044 H 1 NIL_1    0.000
131 H_2196 122.058 75.044 -0.330 H 1 NIL_1    0.000
132 H_18761 117.763 78.578 -1.712 H 1 NIL_1    0.000
133 H_18762 117.216 79.594 -3.038 H 1 NIL_1    0.000
134 HP 113.470 80.535 -1.059 H 1 NIL_1    0.000
135 H_18271 108.786 75.833 -2.320 H 1 NIL_1    0.000
136 H_18272 109.250 74.366 -3.149 H 1 NIL_1    0.000
137 H_18711 115.431 80.555 -1.652 H 1 NIL_1    0.000
138 H_18712 115.202 78.856 -2.041 H 1 NIL_1    0.000
139 H_18641 121.464 74.230 -3.311 H 1 NIL_1    0.000
140 H_18642 121.489 72.508 -2.958 H 1 NIL_1    0.000
141 H_18751 111.921 68.526 -0.018 H 1 NIL_1    0.000
142 H_18752 112.592 67.529 1.304 H 1 NIL_1    0.000
143 H_18753 113.650 68.057 -0.037 H 1 NIL_1    0.000
144 HP 111.206 74.264 -2.117 H 1 NIL_1    0.000
145 H_18251 108.642 74.254 0.879 H 1 NIL_1    0.000
146 H_18252 108.979 72.618 0.276 H 1 NIL_1    0.000
147 H_18291 116.344 78.126 1.611 H 1 NIL_1    0.000
148 H_18292 117.295 78.050 0.153 H 1 NIL_1    0.000
149 H_18731 112.541 70.918 -0.080 H 1 NIL_1    0.000
150 H_18732 114.274 70.467 -0.126 H 1 NIL_1    0.000
151 H_18131 118.274 75.759 0.576 H 1 NIL_1    0.000
152 H_18132 118.085 76.427 -1.065 H 1 NIL_1    0.000
153 H_18701 112.988 71.979 2.216 H 1 NIL_1    0.000
154 H_18702 114.654 71.552 2.023 H 1 NIL_1    0.000
155 H_18351 112.795 73.166 -0.972 H 1 NIL_1    0.000
156 H_18352 113.057 74.739 -0.220 H 1 NIL_1    0.000
157 H_18151 116.730 72.600 -1.415 H 1 NIL_1    0.000
158 H_18152 116.622 73.966 -2.533 H 1 NIL_1    0.000
159 HP 114.846 74.591 -1.258 H 1 NIL_1    0.000
160 HH 113.482 84.092 2.319 H 1 NIL_1    0.000
161 HH 106.863 75.520 -0.528 H 1 NIL_1    0.000
162 HH 118.415 73.050 0.775 H 1 NIL_1    0.000
@<TRIPOS>BOND
1 2 3 1 
2 2 1 2 
3 2 4 1 
4 5 9 1 
5 5 3 1 
6 6 10 1 
7 6 11 1 
8 6 3 1 
9 7 4 1 
10 8 4 1 
11 9 10 1 
12 9 14 1 
13 9 15 1 
14 11 17 1 
15 12 7 1 
16 13 8 1 
17 15 23 1 
18 16 11 2 
19 17 24 1 
20 18 12 2 
21 19 25 1 
22 19 12 1 
23 20 13 1 
24 21 14 1 
25 22 14 2 
26 23 21 1 
27 26 34 1 
28 26 19 1 
29 27 20 1 
30 28 21 1 
31 29 23 2 
32 30 36 1 
33 30 37 2 
34 30 24 1 
35 31 24 1 
36 32 25 1 
37 32 39 1 
38 32 40 1 
39 33 26 1 
40 33 41 2 
41 33 42 1 
42 34 32 1 
43 35 43 1 
44 35 28 1 
45 36 45 1 
46 36 46 1 
47 38 31 1 
48 40 50 1 
49 44 54 1 
50 44 35 2 
51 45 55 1 
52 46 56 1 
53 47 38 1 
54 48 39 1 
55 49 39 2 
56 50 48 1 
57 51 42 1 
58 52 42 1 
59 53 43 2 
60 53 62 1 
61 54 62 2 
62 55 56 1 
63 55 63 1 
64 57 46 1 
65 57 51 1 
66 58 47 1 
67 59 48 1 
68 60 50 2 
69 61 52 1 
70 62 68 1 
71 64 71 1 
72 64 55 1 
73 65 57 2 
74 66 59 1 
75 67 61 1 
76 69 63 1 
77 70 63 2 
78 71 69 1 
79 72 66 2 
80 73 79 2 
81 73 66 1 
82 74 67 1 
83 75 68 1 
84 76 69 1 
85 77 71 2 
86 78 72 1 
87 79 81 1 
88 80 76 1 
89 81 78 2 
90 82 80 2 
91 83 86 2 
92 83 80 1 
93 84 81 1 
94 85 82 1 
95 86 88 1 
96 87 84 1 
97 88 85 2 
98 89 88 1 
99 90 89 1 
100 91 90 1 
101 92 90 1 
102 93 90 1 
103 94 87 1 
104 95 87 1 
105 96 87 1 
106 97 86 1 
107 98 85 1 
108 99 83 1 
109 100 82 1 
110 101 79 1 
111 102 78 1 
112 103 76 1 
113 104 76 1 
114 105 75 1 
115 106 75 1 
116 107 75 1 
117 108 74 1 
118 109 74 1 
119 110 74 1 
120 111 73 1 
121 112 72 1 
122 113 61 1 
123 114 61 1 
124 115 59 1 
125 116 59 1 
126 117 58 1 
127 118 58 1 
128 119 58 1 
129 120 56 1 
130 121 56 1 
131 122 54 1 
132 123 53 1 
133 124 52 1 
134 125 52 1 
135 126 51 1 
136 127 51 1 
137 128 45 1 
138 129 45 1 
139 130 44 1 
140 131 43 1 
141 132 38 1 
142 133 38 1 
143 134 36 1 
144 135 34 1 
145 136 34 1 
146 137 31 1 
147 138 31 1 
148 139 28 1 
149 140 28 1 
150 141 27 1 
151 142 27 1 
152 143 27 1 
153 144 26 1 
154 145 25 1 
155 146 25 1 
156 147 17 1 
157 148 17 1 
158 149 13 1 
159 150 13 1 
160 151 10 1 
161 152 10 1 
162 153 8 1 
163 154 8 1 
164 155 7 1 
165 156 7 1 
166 157 5 1 
167 158 5 1 
168 159 3 1 
169 160 64 1 
170 161 40 1 
171 162 15 1 
@<TRIPOS>SUBSTRUCTURE
1 NIL_1 1 RESIDUE 1 A NIL 1
