@<TRIPOS>MOLECULE
NIL
219 234 1 0 0
POLYMER
CHARGES


@<TRIPOS>ATOM
1 C_3323 207.013 94.468 -0.659828 C.3 1 NIL_1    0.000
2 C_3320 207.528 93.034 -0.966 C.3 1 NIL_1    0.000
3 N 207.440 95.080 0.629 N.am 1 NIL_1    0.000
4 C_3295 206.741 92.447 -2.152 C.3 1 NIL_1    0.000
5 C_3319 207.445 92.066 0.237 C.3 1 NIL_1    0.000
6 C_3356 208.593 96.003 0.518 C.3 1 NIL_1    0.000
7 C_3358 206.637 95.220 1.725 C.2 1 NIL_1    0.000
8 C_3347 209.944 95.435 0.122 C.2 1 NIL_1    0.000
9 O 207.129 95.284 2.834 O.2 1 NIL_1    0.000
10 C_3359 205.130 95.437 1.578 C.3 1 NIL_1    0.000
11 N 210.930 96.340 -0.114 N.am 1 NIL_1    0.000
12 O 210.157 94.244 0.040 O.2 1 NIL_1    0.000
13 N 204.637 96.157 0.379 N.am 1 NIL_1    0.000
14 C_3376 204.375 94.107 1.675 C.3 1 NIL_1    0.000
15 C_3349 211.156 97.515 0.765 C.3 1 NIL_1    0.000
16 C_3366 212.221 95.977 -0.718 C.3 1 NIL_1    0.000
17 C_3361 205.145 97.336 -0.075 C.2 1 NIL_1    0.000
18 C_3378 203.476 95.431 -0.166 C.3 1 NIL_1    0.000
19 C_3377 203.093 94.354 0.870 C.3 1 NIL_1    0.000
20 C_3364 212.661 97.866 0.711 C.3 1 NIL_1    0.000
21 C_3348 210.228 98.710 0.578 C.2 1 NIL_1    0.000
22 C_3365 213.289 96.546 0.219 C.3 1 NIL_1    0.000
23 C_3362 204.548 97.973 -1.323 C.3 1 NIL_1    0.000
24 O 206.059 97.882 0.511 O.2 1 NIL_1    0.000
25 N 202.422 93.156 0.357 N.am 1 NIL_1    0.000
26 C_3341 202.013 94.866 1.792 C.2 1 NIL_1    0.000
27 N 209.768 99.036 -0.664 N.am 1 NIL_1    0.000
28 O 209.815 99.287 1.566 O.2 1 NIL_1    0.000
29 N 214.645 96.531 -0.341 N.am 1 NIL_1    0.000
30 C_3345 213.474 95.541 1.332 C.2 1 NIL_1    0.000
31 N 204.524 99.446 -1.199 N.am 1 NIL_1    0.000
32 C_3339 201.200 92.969 0.904 C.2 1 NIL_1    0.000
33 C_3379 203.110 92.347 -0.675 C.3 1 NIL_1    0.000
34 O 202.072 95.868 2.481 O.2 1 NIL_1    0.000
35 N 200.969 94.011 1.747 N.am 1 NIL_1    0.000
36 C_3321 210.596 98.969 -1.902 C.3 1 NIL_1    0.000
37 C_3351 208.461 99.721 -0.805 C.3 1 NIL_1    0.000
38 C_3343 215.377 95.502 0.145 C.2 1 NIL_1    0.000
39 C_3395 215.013 97.456 -1.440 C.3 1 NIL_1    0.000
40 O 212.674 95.259 2.205 O.2 1 NIL_1    0.000
41 N 214.675 94.952 1.168 N.am 1 NIL_1    0.000
42 C_3322 203.211 99.978 -0.756 C.3 1 NIL_1    0.000
43 C_3353 205.498 100.225 -1.749 C.2 1 NIL_1    0.000
44 O 200.453 92.037 0.680 O.2 1 NIL_1    0.000
45 C_3380 202.477 91.052 -1.144 C.2 1 NIL_1    0.000
46 C_3298 199.769 94.206 2.587 C.3 1 NIL_1    0.000
47 C_3316 209.892 98.606 -3.236 C.3 1 NIL_1    0.000
48 C_3350 208.522 101.213 -1.097 C.2 1 NIL_1    0.000
49 O 216.460 95.133 -0.267 O.2 1 NIL_1    0.000
50 C_3396 216.512 97.620 -1.647 C.2 1 NIL_1    0.000
51 C_3327 215.081 93.793 1.983 C.3 1 NIL_1    0.000
52 C_3318 203.060 100.347 0.746 C.3 1 NIL_1    0.000
53 O 206.000 99.945 -2.820 O.2 1 NIL_1    0.000
54 C_3354 205.962 101.421 -0.923 C.3 1 NIL_1    0.000
55 C_3534 201.626 91.041 -2.169 C.2 1 NIL_1    0.000
56 C_3542 202.755 89.890 -0.563 C.2 1 NIL_1    0.000
57 C_3299 198.478 93.571 2.115 C.2 1 NIL_1    0.000
58 C_3296 209.403 97.141 -3.235 C.3 1 NIL_1    0.000
59 C_3315 210.862 98.839 -4.413 C.3 1 NIL_1    0.000
60 N 207.351 101.910 -1.155 N.am 1 NIL_1    0.000
61 O 209.584 101.787 -1.242 O.2 1 NIL_1    0.000
62 C_3550 217.231 98.120 -0.620 C.2 1 NIL_1    0.000
63 C_3558 217.036 97.222 -2.802 C.2 1 NIL_1    0.000
64 C_3326 216.553 93.447 2.019 C.2 1 NIL_1    0.000
65 C_3297 202.957 99.105 1.656 C.3 1 NIL_1    0.000
66 C_3317 201.795 101.215 0.928 C.3 1 NIL_1    0.000
67 C_3373 205.050 102.645 -1.137 C.3 1 NIL_1    0.000
68 N 201.051 89.973 -2.624 N.2 1 NIL_1    0.000
69 C_3540 202.172 88.783 -1.017 C.2 1 NIL_1    0.000
70 C_3300 197.950 92.537 2.779 C.2 1 NIL_1    0.000
71 C_3309 197.860 94.024 1.019 C.2 1 NIL_1    0.000
72 C_3375 207.322 103.381 -1.273 C.3 1 NIL_1    0.000
73 N 218.523 98.095 -0.857 N.2 1 NIL_1    0.000
74 C_3556 218.345 97.251 -2.956 C.2 1 NIL_1    0.000
75 C_3310 217.025 92.408 1.322 C.2 1 NIL_1    0.000
76 C_3314 217.402 94.188 2.739 C.2 1 NIL_1    0.000
77 C_3374 205.947 103.820 -0.748 C.3 1 NIL_1    0.000
78 C_3538 201.308 88.824 -2.055 C.2 1 NIL_1    0.000
79 C_3306 196.825 91.961 2.352 C.2 1 NIL_1    0.000
80 C_3308 196.736 93.448 0.588 C.2 1 NIL_1    0.000
81 C_3554 219.118 97.668 -1.947 C.2 1 NIL_1    0.000
82 C_3311 218.325 92.112 1.347 C.2 1 NIL_1    0.000
83 C_3313 218.702 93.893 2.766 C.2 1 NIL_1    0.000
84 N 205.438 105.139 -1.128 N.am 1 NIL_1    0.000
85 C_3337 205.944 103.981 0.758 C.2 1 NIL_1    0.000
86 C_3582 200.671 87.740 -2.558 C.2 1 NIL_1    0.000
87 C_3307 196.220 92.415 1.254 C.2 1 NIL_1    0.000
88 C_3584 220.470 97.683 -1.978 C.2 1 NIL_1    0.000
89 C_3312 219.165 92.854 2.070 C.2 1 NIL_1    0.000
90 C_3335 205.018 105.856 -0.059 C.2 1 NIL_1    0.000
91 C_3411 205.265 105.466 -2.561 C.3 1 NIL_1    0.000
92 O 206.369 103.188 1.578 O.2 1 NIL_1    0.000
93 N 205.365 105.162 1.056 N.am 1 NIL_1    0.000
94 N 200.915 86.594 -1.975 N.2 1 NIL_1    0.000
95 C_3612 199.812 87.779 -3.601 C.2 1 NIL_1    0.000
96 N 221.041 97.286 -3.086 N.2 1 NIL_1    0.000
97 C_3628 221.243 98.072 -0.940 C.2 1 NIL_1    0.000
98 O 204.427 106.918 -0.095 O.2 1 NIL_1    0.000
99 C_3412 205.215 106.951 -2.872 C.2 1 NIL_1    0.000
100 C_3325 205.092 105.574 2.450 C.3 1 NIL_1    0.000
101 C_3606 200.320 85.525 -2.407 C.2 1 NIL_1    0.000
102 C_3610 199.214 86.674 -4.040 C.2 1 NIL_1    0.000
103 C_3622 222.335 97.283 -3.165 C.2 1 NIL_1    0.000
104 C_3626 222.570 98.059 -1.029 C.2 1 NIL_1    0.000
105 C_3566 206.281 107.732 -2.740 C.2 1 NIL_1    0.000
106 C_3574 204.077 107.528 -3.254 C.2 1 NIL_1    0.000
107 C_3324 204.970 107.062 2.708 C.2 1 NIL_1    0.000
108 C_3608 199.469 85.526 -3.430 C.2 1 NIL_1    0.000
109 C_3624 223.127 97.657 -2.163 C.2 1 NIL_1    0.000
110 C_3568 206.163 109.042 -2.957 C.2 1 NIL_1    0.000
111 N 203.950 108.798 -3.478 N.2 1 NIL_1    0.000
112 C_3301 206.031 107.862 2.553 C.2 1 NIL_1    0.000
113 C_3305 203.799 107.599 3.067 C.2 1 NIL_1    0.000
114 C_3570 204.982 109.591 -3.316 C.2 1 NIL_1    0.000
115 C_3302 205.925 109.176 2.750 C.2 1 NIL_1    0.000
116 C_3304 203.690 108.913 3.268 C.2 1 NIL_1    0.000
117 C_3586 204.782 110.923 -3.503 C.2 1 NIL_1    0.000
118 C_3303 204.753 109.702 3.108 C.2 1 NIL_1    0.000
119 C_3636 205.740 111.861 -3.341 C.2 1 NIL_1    0.000
120 N 203.575 111.313 -3.846 N.2 1 NIL_1    0.000
121 C_3638 205.481 113.154 -3.524 C.2 1 NIL_1    0.000
122 C_3642 203.332 112.574 -4.024 C.2 1 NIL_1    0.000
123 C_3640 204.256 113.518 -3.872 C.2 1 NIL_1    0.000
124 H_3640 204.009 114.566 -4.029 H 1 NIL_1    0.000
125 H_3642 202.297 112.742 -4.300 H 1 NIL_1    0.000
126 H_3638 206.260 113.899 -3.387 H 1 NIL_1    0.000
127 H_3636 206.753 111.606 -3.049 H 1 NIL_1    0.000
128 H_3303 204.661 110.772 3.265 H 1 NIL_1    0.000
129 H_3304 202.731 109.341 3.555 H 1 NIL_1    0.000
130 H_3302 206.794 109.817 2.617 H 1 NIL_1    0.000
131 H_3305 202.922 106.968 3.190 H 1 NIL_1    0.000
132 H_3301 206.987 107.441 2.252 H 1 NIL_1    0.000
133 H_3568 207.057 109.636 -2.813 H 1 NIL_1    0.000
134 H_3624 224.208 97.633 -2.274 H 1 NIL_1    0.000
135 H_3608 198.993 84.604 -3.758 H 1 NIL_1    0.000
136 H_3574 203.130 107.019 -3.402 H 1 NIL_1    0.000
137 H_3566 207.234 107.313 -2.430 H 1 NIL_1    0.000
138 H_3626 223.187 98.369 -0.190 H 1 NIL_1    0.000
139 H_3622 222.667 96.938 -4.138 H 1 NIL_1    0.000
140 H_3610 198.524 86.711 -4.880 H 1 NIL_1    0.000
141 H_3606 200.611 84.653 -1.833 H 1 NIL_1    0.000
142 H_33251 205.899 105.191 3.081 H 1 NIL_1    0.000
143 H_33252 204.177 105.069 2.769 H 1 NIL_1    0.000
144 H_3628 220.811 98.400 0.003 H 1 NIL_1    0.000
145 H_3612 199.580 88.709 -4.114 H 1 NIL_1    0.000
146 H_34111 204.336 104.997 -2.895 H 1 NIL_1    0.000
147 H_34112 206.079 105.016 -3.132 H 1 NIL_1    0.000
148 H_3312 220.225 92.614 2.089 H 1 NIL_1    0.000
149 H_3307 195.305 91.944 0.904 H 1 NIL_1    0.000
150 H_3313 219.384 94.502 3.354 H 1 NIL_1    0.000
151 H_3311 218.699 91.265 0.775 H 1 NIL_1    0.000
152 H_3308 196.243 93.821 -0.306 H 1 NIL_1    0.000
153 H_3306 196.406 91.119 2.898 H 1 NIL_1    0.000
154 H_3314 217.033 95.042 3.303 H 1 NIL_1    0.000
155 H_3310 216.349 91.799 0.725 H 1 NIL_1    0.000
156 H_3556 218.756 96.897 -3.899 H 1 NIL_1    0.000
157 H_33751 207.431 103.632 -2.329 H 1 NIL_1    0.000
158 H_33752 208.129 103.847 -0.701 H 1 NIL_1    0.000
159 H_3309 198.277 94.861 0.465 H 1 NIL_1    0.000
160 H_3300 198.440 92.157 3.672 H 1 NIL_1    0.000
161 H_3540 202.420 87.849 -0.516 H 1 NIL_1    0.000
162 H_33731 204.771 102.716 -2.192 H 1 NIL_1    0.000
163 H_33732 204.142 102.623 -0.535 H 1 NIL_1    0.000
164 H_33171 200.901 100.667 0.621 H 1 NIL_1    0.000
165 H_33172 201.861 102.127 0.330 H 1 NIL_1    0.000
166 H_33173 201.676 101.508 1.974 H 1 NIL_1    0.000
167 H_32971 202.300 98.350 1.219 H 1 NIL_1    0.000
168 H_32972 202.560 99.375 2.638 H 1 NIL_1    0.000
169 H_32973 203.937 98.666 1.827 H 1 NIL_1    0.000
170 H_3558 216.408 96.839 -3.603 H 1 NIL_1    0.000
171 H_3550 218.112 98.479 -0.097 H 1 NIL_1    0.000
172 H_33151 211.731 98.182 -4.335 H 1 NIL_1    0.000
173 H_33152 211.212 99.874 -4.424 H 1 NIL_1    0.000
174 H_33153 210.361 98.643 -5.364 H 1 NIL_1    0.000
175 H_32961 210.245 96.451 -3.134 H 1 NIL_1    0.000
176 H_32962 208.881 96.907 -4.166 H 1 NIL_1    0.000
177 H_32963 208.710 96.968 -2.412 H 1 NIL_1    0.000
178 H_3542 203.448 89.840 0.274 H 1 NIL_1    0.000
179 H_3534 201.311 91.912 -2.735 H 1 NIL_1    0.000
180 H_3354 205.910 101.112 0.125 H 1 NIL_1    0.000
181 H_3318 203.915 100.940 1.075 H 1 NIL_1    0.000
182 H_33271 214.515 92.928 1.625 H 1 NIL_1    0.000
183 H_33272 214.758 93.984 3.011 H 1 NIL_1    0.000
184 H_3316 209.038 99.266 -3.400 H 1 NIL_1    0.000
185 H_32981 199.594 95.282 2.671 H 1 NIL_1    0.000
186 H_32982 200.013 93.841 3.589 H 1 NIL_1    0.000
187 H_33221 202.421 99.268 -1.015 H 1 NIL_1    0.000
188 H_33222 203.009 100.871 -1.353 H 1 NIL_1    0.000
189 H_33951 214.589 98.442 -1.241 H 1 NIL_1    0.000
190 H_33952 214.550 97.080 -2.355 H 1 NIL_1    0.000
191 H_33511 207.884 99.607 0.116 H 1 NIL_1    0.000
192 H_33512 207.902 99.228 -1.597 H 1 NIL_1    0.000
193 H_33211 211.412 98.266 -1.763 H 1 NIL_1    0.000
194 H_33212 211.073 99.944 -2.021 H 1 NIL_1    0.000
195 H_33791 204.107 92.106 -0.303 H 1 NIL_1    0.000
196 H_33792 203.247 92.981 -1.554 H 1 NIL_1    0.000
197 H_33621 205.178 97.670 -2.163 H 1 NIL_1    0.000
198 H_33622 203.542 97.592 -1.500 H 1 NIL_1    0.000
199 H_33641 212.833 98.679 0.005 H 1 NIL_1    0.000
200 H_33642 213.043 98.166 1.690 H 1 NIL_1    0.000
201 H_33781 203.773 94.976 -1.113 H 1 NIL_1    0.000
202 H_33782 202.632 96.104 -0.337 H 1 NIL_1    0.000
203 H_33661 212.299 96.427 -1.710 H 1 NIL_1    0.000
204 H_33662 212.334 94.895 -0.824 H 1 NIL_1    0.000
205 H_3349 210.956 97.169 1.785 H 1 NIL_1    0.000
206 H_33761 204.968 93.324 1.213 H 1 NIL_1    0.000
207 H_33762 204.182 93.821 2.713 H 1 NIL_1    0.000
208 H_3359 204.836 96.053 2.434 H 1 NIL_1    0.000
209 H_33561 208.734 96.530 1.466 H 1 NIL_1    0.000
210 H_33562 208.342 96.752 -0.234 H 1 NIL_1    0.000
211 H_33191 206.412 91.873 0.527 H 1 NIL_1    0.000
212 H_33192 207.985 92.454 1.103 H 1 NIL_1    0.000
213 H_33193 207.891 91.106 -0.029 H 1 NIL_1    0.000
214 H_32951 206.785 93.120 -3.011 H 1 NIL_1    0.000
215 H_32952 205.694 92.295 -1.887 H 1 NIL_1    0.000
216 H_32953 207.164 91.484 -2.448 H 1 NIL_1    0.000
217 H_3320 208.565 93.088 -1.291 H 1 NIL_1    0.000
218 H_33231 207.313 95.127 -1.478 H 1 NIL_1    0.000
219 H_33232 205.929 94.403 -0.690 H 1 NIL_1    0.000
@<TRIPOS>BOND
1 1 2 1 
2 3 1 1 
3 4 2 1 
4 5 2 1 
5 6 8 1 
6 6 3 1 
7 7 3 1 
8 8 11 1 
9 9 7 2 
10 10 7 1 
11 12 8 2 
12 13 10 1 
13 13 18 1 
14 14 10 1 
15 14 19 1 
16 15 11 1 
17 16 22 1 
18 16 11 1 
19 17 13 1 
20 18 19 1 
21 19 25 1 
22 19 26 1 
23 20 15 1 
24 20 22 1 
25 21 27 1 
26 21 15 1 
27 22 29 1 
28 22 30 1 
29 23 17 1 
30 23 31 1 
31 24 17 2 
32 25 32 1 
33 26 35 1 
34 27 36 1 
35 28 21 2 
36 29 38 1 
37 30 41 1 
38 31 42 1 
39 32 35 1 
40 33 25 1 
41 34 26 2 
42 35 46 1 
43 36 47 1 
44 37 48 1 
45 37 27 1 
46 38 41 1 
47 39 29 1 
48 40 30 2 
49 41 51 1 
50 42 52 1 
51 43 31 1 
52 43 54 1 
53 44 32 2 
54 45 33 1 
55 46 57 1 
56 49 38 2 
57 50 39 1 
58 51 64 1 
59 53 43 2 
60 55 45 2 
61 56 69 2 
62 56 45 1 
63 58 47 1 
64 59 47 1 
65 60 54 1 
66 60 48 1 
67 61 48 2 
68 62 50 2 
69 63 74 2 
70 63 50 1 
71 64 75 1 
72 65 52 1 
73 66 52 1 
74 67 54 1 
75 67 77 1 
76 68 55 1 
77 69 78 1 
78 70 57 2 
79 71 80 2 
80 71 57 1 
81 72 77 1 
82 72 60 1 
83 73 62 1 
84 74 81 1 
85 76 83 1 
86 76 64 2 
87 77 84 1 
88 77 85 1 
89 78 68 2 
90 79 70 1 
91 80 87 1 
92 81 73 2 
93 82 75 2 
94 83 89 2 
95 84 90 1 
96 85 93 1 
97 86 78 1 
98 87 79 2 
99 88 81 1 
100 88 97 1 
101 89 82 1 
102 90 93 1 
103 91 84 1 
104 92 85 2 
105 93 100 1 
106 94 86 2 
107 95 102 2 
108 95 86 1 
109 96 88 2 
110 96 103 1 
111 97 104 2 
112 98 90 2 
113 99 91 1 
114 100 107 1 
115 101 94 1 
116 102 108 1 
117 104 109 1 
118 105 99 2 
119 106 111 2 
120 106 99 1 
121 107 112 1 
122 108 101 2 
123 109 103 2 
124 110 105 1 
125 111 114 1 
126 113 116 1 
127 113 107 2 
128 114 110 2 
129 115 112 2 
130 116 118 2 
131 117 114 1 
132 117 119 2 
133 117 120 1 
134 118 115 1 
135 120 122 2 
136 121 119 1 
137 122 123 1 
138 123 121 2 
139 124 123 1 
140 125 122 1 
141 126 121 1 
142 127 119 1 
143 128 118 1 
144 129 116 1 
145 130 115 1 
146 131 113 1 
147 132 112 1 
148 133 110 1 
149 134 109 1 
150 135 108 1 
151 136 106 1 
152 137 105 1 
153 138 104 1 
154 139 103 1 
155 140 102 1 
156 141 101 1 
157 142 100 1 
158 143 100 1 
159 144 97 1 
160 145 95 1 
161 146 91 1 
162 147 91 1 
163 148 89 1 
164 149 87 1 
165 150 83 1 
166 151 82 1 
167 152 80 1 
168 153 79 1 
169 154 76 1 
170 155 75 1 
171 156 74 1 
172 157 72 1 
173 158 72 1 
174 159 71 1 
175 160 70 1 
176 161 69 1 
177 162 67 1 
178 163 67 1 
179 164 66 1 
180 165 66 1 
181 166 66 1 
182 167 65 1 
183 168 65 1 
184 169 65 1 
185 170 63 1 
186 171 62 1 
187 172 59 1 
188 173 59 1 
189 174 59 1 
190 175 58 1 
191 176 58 1 
192 177 58 1 
193 178 56 1 
194 179 55 1 
195 180 54 1 
196 181 52 1 
197 182 51 1 
198 183 51 1 
199 184 47 1 
200 185 46 1 
201 186 46 1 
202 187 42 1 
203 188 42 1 
204 189 39 1 
205 190 39 1 
206 191 37 1 
207 192 37 1 
208 193 36 1 
209 194 36 1 
210 195 33 1 
211 196 33 1 
212 197 23 1 
213 198 23 1 
214 199 20 1 
215 200 20 1 
216 201 18 1 
217 202 18 1 
218 203 16 1 
219 204 16 1 
220 205 15 1 
221 206 14 1 
222 207 14 1 
223 208 10 1 
224 209 6 1 
225 210 6 1 
226 211 5 1 
227 212 5 1 
228 213 5 1 
229 214 4 1 
230 215 4 1 
231 216 4 1 
232 217 2 1 
233 218 1 1 
234 219 1 1 
@<TRIPOS>SUBSTRUCTURE
1 NIL_1 1 RESIDUE 1 A NIL 1
