@<TRIPOS>MOLECULE
NIL
210 219 1 0 0
POLYMER
CHARGES


@<TRIPOS>ATOM
1 C_3247 138.023 78.3942 -0.76967 C.3 1 NIL_1    0.000
2 C_3248 139.475 78.615 -0.289 C.3 1 NIL_1    0.000
3 C_3251 140.459 77.869 -1.230 C.3 1 NIL_1    0.000
4 C_3321 139.785 80.125 -0.219 C.3 1 NIL_1    0.000
5 N 141.897 77.930 -0.841 N.am 1 NIL_1    0.000
6 C_3289 142.292 77.166 0.377 C.3 1 NIL_1    0.000
7 C_3280 142.774 78.714 -1.538 C.2 1 NIL_1    0.000
8 C_3288 141.330 76.123 0.909 C.2 1 NIL_1    0.000
9 O 142.433 79.276 -2.564 O.2 1 NIL_1    0.000
10 C_3281 144.188 78.923 -0.987 C.3 1 NIL_1    0.000
11 N 141.240 74.989 0.177 N.am 1 NIL_1    0.000
12 O 140.684 76.292 1.924 O.2 1 NIL_1    0.000
13 N 145.125 79.293 -2.063 N.am 1 NIL_1    0.000
14 C_3300 144.201 80.078 0.037 C.3 1 NIL_1    0.000
15 C_3286 141.966 73.802 0.666 C.3 1 NIL_1    0.000
16 C_3305 139.917 74.509 -0.248 C.3 1 NIL_1    0.000
17 C_3277 145.626 78.458 -3.009 C.2 1 NIL_1    0.000
18 C_3302 145.327 80.742 -2.062 C.3 1 NIL_1    0.000
19 C_3301 144.922 81.251 -0.665 C.3 1 NIL_1    0.000
20 C_3303 140.892 72.828 1.224 C.3 1 NIL_1    0.000
21 C_3285 142.792 73.135 -0.439 C.2 1 NIL_1    0.000
22 C_3304 139.553 73.260 0.571 C.3 1 NIL_1    0.000
23 C_3278 145.671 76.966 -2.702 C.3 1 NIL_1    0.000
24 O 146.087 78.894 -4.046 O.2 1 NIL_1    0.000
25 N 144.201 82.522 -0.680 N.am 1 NIL_1    0.000
26 C_3264 146.139 81.685 0.117 C.2 1 NIL_1    0.000
27 N 144.063 72.702 -0.170 N.am 1 NIL_1    0.000
28 O 142.290 72.924 -1.527 O.2 1 NIL_1    0.000
29 N 138.798 72.273 -0.216 N.am 1 NIL_1    0.000
30 C_3268 138.478 73.618 1.576 C.2 1 NIL_1    0.000
31 N 146.621 76.483 -1.653 N.am 1 NIL_1    0.000
32 C_3262 144.864 83.522 -0.062 C.2 1 NIL_1    0.000
33 C_3314 142.940 82.608 -1.436 C.3 1 NIL_1    0.000
34 O 147.077 80.975 0.427 O.2 1 NIL_1    0.000
35 N 146.019 82.998 0.419 N.am 1 NIL_1    0.000
36 C_3252 144.663 71.651 -1.039 C.3 1 NIL_1    0.000
37 C_3283 144.963 73.348 0.840 C.3 1 NIL_1    0.000
38 C_3266 137.481 72.254 0.099 C.2 1 NIL_1    0.000
39 C_3306 139.492 71.548 -1.303 C.3 1 NIL_1    0.000
40 O 138.608 74.344 2.544 O.2 1 NIL_1    0.000
41 N 137.321 73.022 1.206 N.am 1 NIL_1    0.000
42 C_3250 147.505 77.517 -1.025 C.3 1 NIL_1    0.000
43 C_3275 146.641 75.143 -1.341 C.2 1 NIL_1    0.000
44 O 144.487 84.674 0.029 O.2 1 NIL_1    0.000
45 C_3315 141.915 83.535 -0.824 C.2 1 NIL_1    0.000
46 C_3229 147.038 83.719 1.207 C.3 1 NIL_1    0.000
47 C_3249 144.095 70.231 -0.772 C.3 1 NIL_1    0.000
48 C_3274 146.372 72.775 1.002 C.2 1 NIL_1    0.000
49 O 136.603 71.668 -0.505 O.2 1 NIL_1    0.000
50 C_3307 138.689 70.475 -2.002 C.2 1 NIL_1    0.000
51 C_3226 136.037 73.289 1.892 C.3 1 NIL_1    0.000
52 C_3246 148.568 78.241 -1.914 C.3 1 NIL_1    0.000
53 O 145.939 74.358 -1.950 O.2 1 NIL_1    0.000
54 C_3276 147.628 74.637 -0.285 C.3 1 NIL_1    0.000
55 O 141.689 84.598 -1.632 O.3 1 NIL_1    0.000
56 O 141.478 83.389 0.301 O.2 1 NIL_1    0.000
57 C_3230 147.065 85.233 1.138 C.2 1 NIL_1    0.000
58 C_3318 144.409 69.716 0.650 C.3 1 NIL_1    0.000
59 C_3319 144.653 69.242 -1.816 C.3 1 NIL_1    0.000
60 N 147.446 73.291 0.325 N.am 1 NIL_1    0.000
61 O 146.526 71.815 1.733 O.2 1 NIL_1    0.000
62 O 138.206 70.639 -3.105 O.2 1 NIL_1    0.000
63 O 138.523 69.378 -1.222 O.3 1 NIL_1    0.000
64 C_3227 134.904 72.299 1.689 C.2 1 NIL_1    0.000
65 C_3245 149.087 77.427 -3.125 C.3 1 NIL_1    0.000
66 C_3320 149.760 78.694 -1.041 C.3 1 NIL_1    0.000
67 C_3291 149.027 74.629 -0.931 C.3 1 NIL_1    0.000
68 C_3445 140.796 85.706 -1.321 C.3 1 NIL_1    0.000
69 C_3231 147.586 85.859 0.077 C.2 1 NIL_1    0.000
70 C_3235 146.565 85.963 2.141 C.2 1 NIL_1    0.000
71 C_3293 148.755 72.600 0.334 C.3 1 NIL_1    0.000
72 C_3427 137.756 68.199 -1.615 C.3 1 NIL_1    0.000
73 C_3228 134.981 71.064 2.198 C.2 1 NIL_1    0.000
74 C_3239 133.813 72.644 0.993 C.2 1 NIL_1    0.000
75 C_3292 149.832 73.562 -0.200 C.3 1 NIL_1    0.000
76 C_3447 139.352 85.192 -1.105 C.3 1 NIL_1    0.000
77 C_3449 140.840 86.609 -2.573 C.3 1 NIL_1    0.000
78 C_3451 141.302 86.504 -0.095 C.3 1 NIL_1    0.000
79 C_3232 147.617 87.192 0.024 C.2 1 NIL_1    0.000
80 C_3234 146.594 87.296 2.091 C.2 1 NIL_1    0.000
81 C_3429 136.266 68.557 -1.851 C.3 1 NIL_1    0.000
82 C_3431 137.868 67.223 -0.421 C.3 1 NIL_1    0.000
83 C_3433 138.380 67.546 -2.874 C.3 1 NIL_1    0.000
84 C_3236 133.989 70.192 2.018 C.2 1 NIL_1    0.000
85 C_3238 132.818 71.775 0.813 C.2 1 NIL_1    0.000
86 N 150.912 73.009 -1.012 N.am 1 NIL_1    0.000
87 C_3272 150.669 74.218 0.878 C.2 1 NIL_1    0.000
88 C_3233 147.124 87.911 1.033 C.2 1 NIL_1    0.000
89 C_3237 132.904 70.549 1.329 C.2 1 NIL_1    0.000
90 C_3270 152.130 73.456 -0.647 C.2 1 NIL_1    0.000
91 C_3310 150.604 72.120 -2.145 C.3 1 NIL_1    0.000
92 O 150.247 74.741 1.891 O.2 1 NIL_1    0.000
93 N 151.972 74.156 0.504 N.am 1 NIL_1    0.000
94 O 153.169 73.257 -1.248 O.2 1 NIL_1    0.000
95 C_3311 150.990 70.693 -1.833 C.2 1 NIL_1    0.000
96 C_3254 153.056 74.875 1.209 C.3 1 NIL_1    0.000
97 O 150.273 69.952 -1.188 O.2 1 NIL_1    0.000
98 O 152.308 70.494 -2.074 O.3 1 NIL_1    0.000
99 C_3253 154.422 74.213 1.250 C.2 1 NIL_1    0.000
100 C_3435 153.078 69.372 -1.555 C.3 1 NIL_1    0.000
101 C_3240 154.591 73.060 1.904 C.2 1 NIL_1    0.000
102 C_3244 155.476 74.773 0.644 C.2 1 NIL_1    0.000
103 C_3437 154.513 69.583 -2.088 C.3 1 NIL_1    0.000
104 C_3439 152.516 68.028 -2.086 C.3 1 NIL_1    0.000
105 C_3443 153.095 69.420 -0.008 C.3 1 NIL_1    0.000
106 C_3241 155.789 72.471 1.948 C.2 1 NIL_1    0.000
107 C_3243 156.675 74.186 0.684 C.2 1 NIL_1    0.000
108 C_3242 156.830 73.033 1.335 C.2 1 NIL_1    0.000
109 H_3242 157.804 72.554 1.368 H 1 NIL_1    0.000
110 H_3243 157.526 74.647 0.188 H 1 NIL_1    0.000
111 H_3241 155.917 71.535 2.483 H 1 NIL_1    0.000
112 H_34431 153.783 68.673 0.392 H 1 NIL_1    0.000
113 H_34432 152.109 69.217 0.414 H 1 NIL_1    0.000
114 H_34433 153.422 70.403 0.342 H 1 NIL_1    0.000
115 H_34391 152.452 68.043 -3.177 H 1 NIL_1    0.000
116 H_34392 151.524 67.815 -1.686 H 1 NIL_1    0.000
117 H_34393 153.165 67.198 -1.798 H 1 NIL_1    0.000
118 H_34371 154.526 69.545 -3.180 H 1 NIL_1    0.000
119 H_34372 155.189 68.810 -1.714 H 1 NIL_1    0.000
120 H_34373 154.901 70.556 -1.776 H 1 NIL_1    0.000
121 H_3244 155.368 75.713 0.111 H 1 NIL_1    0.000
122 H_3240 153.751 72.593 2.411 H 1 NIL_1    0.000
123 H_32541 152.744 75.045 2.243 H 1 NIL_1    0.000
124 H_32542 153.149 75.858 0.741 H 1 NIL_1    0.000
125 H_33101 151.162 72.443 -3.028 H 1 NIL_1    0.000
126 H_33102 149.535 72.134 -2.373 H 1 NIL_1    0.000
127 H_3237 132.093 69.840 1.186 H 1 NIL_1    0.000
128 H_3233 147.153 88.996 0.994 H 1 NIL_1    0.000
129 H_3238 131.938 72.066 0.244 H 1 NIL_1    0.000
130 H_3236 134.062 69.191 2.437 H 1 NIL_1    0.000
131 H_34331 138.218 68.157 -3.763 H 1 NIL_1    0.000
132 H_34332 137.928 66.569 -3.063 H 1 NIL_1    0.000
133 H_34333 139.455 67.403 -2.743 H 1 NIL_1    0.000
134 H_34311 138.915 66.977 -0.223 H 1 NIL_1    0.000
135 H_34312 137.333 66.291 -0.624 H 1 NIL_1    0.000
136 H_34313 137.446 67.667 0.484 H 1 NIL_1    0.000
137 H_34291 136.142 69.229 -2.702 H 1 NIL_1    0.000
138 H_34292 135.836 69.036 -0.968 H 1 NIL_1    0.000
139 H_34293 135.685 67.656 -2.061 H 1 NIL_1    0.000
140 H_3234 146.189 87.879 2.914 H 1 NIL_1    0.000
141 H_3232 148.047 87.692 -0.841 H 1 NIL_1    0.000
142 H_34511 141.231 85.922 0.826 H 1 NIL_1    0.000
143 H_34512 140.704 87.408 0.041 H 1 NIL_1    0.000
144 H_34513 142.343 86.807 -0.232 H 1 NIL_1    0.000
145 H_34491 141.867 86.916 -2.788 H 1 NIL_1    0.000
146 H_34492 140.237 87.507 -2.428 H 1 NIL_1    0.000
147 H_34493 140.456 86.073 -3.445 H 1 NIL_1    0.000
148 H_34471 139.055 84.526 -1.918 H 1 NIL_1    0.000
149 H_34472 138.650 86.029 -1.079 H 1 NIL_1    0.000
150 H_34473 139.254 84.650 -0.163 H 1 NIL_1    0.000
151 H_3239 133.732 73.643 0.569 H 1 NIL_1    0.000
152 H_3228 135.863 70.763 2.759 H 1 NIL_1    0.000
153 H_32931 148.659 71.730 -0.317 H 1 NIL_1    0.000
154 H_32932 149.015 72.259 1.339 H 1 NIL_1    0.000
155 H_3235 146.130 85.471 3.008 H 1 NIL_1    0.000
156 H_3231 147.991 85.281 -0.751 H 1 NIL_1    0.000
157 H_32911 148.940 74.360 -1.986 H 1 NIL_1    0.000
158 H_32912 149.521 75.596 -0.864 H 1 NIL_1    0.000
159 H_33201 150.313 77.833 -0.658 H 1 NIL_1    0.000
160 H_33202 149.408 79.281 -0.189 H 1 NIL_1    0.000
161 H_33203 150.451 79.310 -1.622 H 1 NIL_1    0.000
162 H_32451 148.269 77.084 -3.760 H 1 NIL_1    0.000
163 H_32452 149.680 76.564 -2.822 H 1 NIL_1    0.000
164 H_32453 149.728 78.062 -3.743 H 1 NIL_1    0.000
165 H_33191 144.417 69.580 -2.827 H 1 NIL_1    0.000
166 H_33192 144.215 68.249 -1.680 H 1 NIL_1    0.000
167 H_33193 145.740 69.153 -1.726 H 1 NIL_1    0.000
168 H_33181 143.972 70.368 1.407 H 1 NIL_1    0.000
169 H_33182 145.487 69.656 0.815 H 1 NIL_1    0.000
170 H_33183 143.993 68.716 0.799 H 1 NIL_1    0.000
171 H_3276 147.611 75.331 0.556 H 1 NIL_1    0.000
172 H_3246 148.111 79.146 -2.313 H 1 NIL_1    0.000
173 H_32261 135.707 74.284 1.580 H 1 NIL_1    0.000
174 H_32262 136.236 73.346 2.967 H 1 NIL_1    0.000
175 H_3249 143.008 70.261 -0.885 H 1 NIL_1    0.000
176 H_32291 148.019 83.357 0.888 H 1 NIL_1    0.000
177 H_32292 146.913 83.415 2.250 H 1 NIL_1    0.000
178 H_32501 148.044 77.084 -0.187 H 1 NIL_1    0.000
179 H_32502 146.875 78.275 -0.558 H 1 NIL_1    0.000
180 H_33061 140.379 71.055 -0.902 H 1 NIL_1    0.000
181 H_33062 139.796 72.260 -2.071 H 1 NIL_1    0.000
182 H_32831 144.500 73.235 1.824 H 1 NIL_1    0.000
183 H_32832 145.041 74.419 0.632 H 1 NIL_1    0.000
184 H_32521 145.750 71.617 -0.966 H 1 NIL_1    0.000
185 H_32522 144.447 71.914 -2.077 H 1 NIL_1    0.000
186 H_33141 142.472 81.626 -1.517 H 1 NIL_1    0.000
187 H_33142 143.164 82.967 -2.444 H 1 NIL_1    0.000
188 H_32781 144.657 76.663 -2.424 H 1 NIL_1    0.000
189 H_32782 145.923 76.464 -3.640 H 1 NIL_1    0.000
190 H_33031 141.139 71.784 1.024 H 1 NIL_1    0.000
191 H_33032 140.837 72.938 2.310 H 1 NIL_1    0.000
192 H_33021 144.704 81.184 -2.842 H 1 NIL_1    0.000
193 H_33022 146.374 80.975 -2.271 H 1 NIL_1    0.000
194 H_33051 139.978 74.267 -1.312 H 1 NIL_1    0.000
195 H_33052 139.162 75.292 -0.121 H 1 NIL_1    0.000
196 H_3286 142.628 74.099 1.481 H 1 NIL_1    0.000
197 H_33001 143.193 80.353 0.356 H 1 NIL_1    0.000
198 H_33002 144.748 79.761 0.930 H 1 NIL_1    0.000
199 H_3281 144.542 78.009 -0.512 H 1 NIL_1    0.000
200 H_32891 142.500 77.864 1.192 H 1 NIL_1    0.000
201 H_32892 143.205 76.609 0.155 H 1 NIL_1    0.000
202 H_33211 139.704 80.586 -1.207 H 1 NIL_1    0.000
203 H_33212 140.794 80.293 0.165 H 1 NIL_1    0.000
204 H_33213 139.086 80.623 0.457 H 1 NIL_1    0.000
205 H_32511 140.162 76.828 -1.329 H 1 NIL_1    0.000
206 H_32512 140.330 78.291 -2.229 H 1 NIL_1    0.000
207 H_3248 139.549 78.208 0.719 H 1 NIL_1    0.000
208 H_32471 137.803 77.327 -0.854 H 1 NIL_1    0.000
209 H_32472 137.863 78.853 -1.748 H 1 NIL_1    0.000
210 H_32473 137.314 78.833 -0.064 H 1 NIL_1    0.000
@<TRIPOS>BOND
1 1 2 1 
2 1 208 1 
3 1 209 1 
4 1 210 1 
5 2 4 1 
6 2 207 1 
7 3 2 1 
8 3 205 1 
9 3 206 1 
10 4 202 1 
11 4 203 1 
12 4 204 1 
13 5 3 1 
14 5 6 1 
15 5 7 1 
16 6 8 1 
17 6 200 1 
18 6 201 1 
19 8 11 1 
20 9 7 2 
21 10 14 1 
22 10 7 1 
23 10 199 1 
24 11 15 1 
25 11 16 1 
26 12 8 2 
27 13 10 1 
28 13 17 1 
29 13 18 1 
30 14 197 1 
31 14 198 1 
32 15 21 1 
33 15 196 1 
34 16 194 1 
35 16 195 1 
36 17 24 2 
37 18 192 1 
38 18 193 1 
39 19 25 1 
40 19 26 1 
41 19 14 1 
42 19 18 1 
43 20 15 1 
44 20 190 1 
45 20 191 1 
46 22 29 1 
47 22 30 1 
48 22 20 1 
49 22 16 1 
50 23 17 1 
51 23 31 1 
52 23 188 1 
53 23 189 1 
54 25 32 1 
55 25 33 1 
56 26 35 1 
57 27 36 1 
58 27 37 1 
59 27 21 1 
60 28 21 2 
61 29 38 1 
62 29 39 1 
63 30 41 1 
64 31 42 1 
65 32 35 1 
66 33 186 1 
67 33 187 1 
68 34 26 2 
69 35 46 1 
70 36 184 1 
71 36 185 1 
72 37 182 1 
73 37 183 1 
74 38 41 1 
75 39 180 1 
76 39 181 1 
77 40 30 2 
78 41 51 1 
79 42 52 1 
80 42 178 1 
81 42 179 1 
82 43 31 1 
83 43 53 2 
84 43 54 1 
85 44 32 2 
86 45 33 1 
87 46 176 1 
88 46 177 1 
89 47 36 1 
90 47 58 1 
91 47 59 1 
92 47 175 1 
93 48 60 1 
94 48 37 1 
95 48 61 2 
96 49 38 2 
97 50 39 1 
98 51 173 1 
99 51 174 1 
100 52 66 1 
101 52 172 1 
102 54 60 1 
103 54 67 1 
104 54 171 1 
105 55 45 1 
106 55 68 1 
107 56 45 2 
108 57 46 1 
109 58 168 1 
110 58 169 1 
111 58 170 1 
112 59 165 1 
113 59 166 1 
114 59 167 1 
115 60 71 1 
116 62 50 2 
117 63 50 1 
118 64 51 1 
119 64 74 1 
120 65 52 1 
121 65 162 1 
122 65 163 1 
123 65 164 1 
124 66 159 1 
125 66 160 1 
126 66 161 1 
127 67 157 1 
128 67 158 1 
129 69 57 2 
130 69 156 1 
131 70 80 2 
132 70 57 1 
133 70 155 1 
134 71 153 1 
135 71 154 1 
136 72 63 1 
137 72 81 1 
138 72 82 1 
139 72 83 1 
140 73 64 2 
141 73 152 1 
142 74 85 2 
143 74 151 1 
144 75 86 1 
145 75 87 1 
146 75 67 1 
147 75 71 1 
148 76 68 1 
149 76 148 1 
150 76 149 1 
151 76 150 1 
152 77 68 1 
153 77 145 1 
154 77 146 1 
155 77 147 1 
156 78 68 1 
157 78 142 1 
158 78 143 1 
159 78 144 1 
160 79 69 1 
161 79 141 1 
162 80 88 1 
163 80 140 1 
164 81 137 1 
165 81 138 1 
166 81 139 1 
167 82 134 1 
168 82 135 1 
169 82 136 1 
170 83 131 1 
171 83 132 1 
172 83 133 1 
173 84 73 1 
174 84 89 2 
175 84 130 1 
176 85 89 1 
177 85 129 1 
178 86 90 1 
179 86 91 1 
180 87 93 1 
181 88 79 2 
182 88 128 1 
183 89 127 1 
184 90 93 1 
185 91 125 1 
186 91 126 1 
187 92 87 2 
188 93 96 1 
189 94 90 2 
190 95 91 1 
191 96 99 1 
192 96 123 1 
193 96 124 1 
194 97 95 2 
195 98 95 1 
196 98 100 1 
197 99 101 1 
198 101 122 1 
199 102 107 1 
200 102 99 2 
201 102 121 1 
202 103 100 1 
203 103 118 1 
204 103 119 1 
205 103 120 1 
206 104 100 1 
207 104 116 1 
208 104 117 1 
209 105 100 1 
210 106 101 2 
211 106 111 1 
212 107 108 2 
213 107 110 1 
214 108 106 1 
215 108 109 1 
216 112 105 1 
217 113 105 1 
218 114 105 1 
219 115 104 1 
@<TRIPOS>SUBSTRUCTURE
1 NIL_1 1 RESIDUE 1 A NIL 1
