@<TRIPOS>MOLECULE
NIL
157 166 1 0 0
POLYMER
CHARGES


@<TRIPOS>ATOM
1 C_2011 125.746 69.2496 -0.15532 C.3 1 NIL_1    0.000
2 C_2010 125.029 70.394 -0.854 C.3 1 NIL_1    0.000
3 C_2252 126.656 68.338 -0.926 C.3 1 NIL_1    0.000
4 C_2254 125.349 67.823 -0.402 C.3 1 NIL_1    0.000
5 N 123.606 70.628 -0.545 N.am 1 NIL_1    0.000
6 C_1996 122.753 71.207 -1.424 C.2 1 NIL_1    0.000
7 C_1998 123.006 70.374 0.646 C.2 1 NIL_1    0.000
8 C_1960 121.412 71.359 -0.751 C.3 1 NIL_1    0.000
9 O 123.032 71.556 -2.555 O.2 1 NIL_1    0.000
10 NH 121.725 70.760 0.536 N.am 1 NIL_1    0.000
11 O 123.506 69.899 1.646 O.2 1 NIL_1    0.000
12 C_1959 120.964 72.820 -0.613 C.3 1 NIL_1    0.000
13 C_1961 120.256 70.671 -1.489 C.3 1 NIL_1    0.000
14 N 119.494 72.815 -0.644 N.am 1 NIL_1    0.000
15 C_1978 119.006 71.494 -1.105 C.3 1 NIL_1    0.000
16 C_1976 118.705 73.881 -0.354 C.2 1 NIL_1    0.000
17 C_1979 118.158 70.770 -0.050 C.2 1 NIL_1    0.000
18 O 117.497 73.804 -0.399 O.2 1 NIL_1    0.000
19 C_1975 119.384 75.178 0.052 C.3 1 NIL_1    0.000
20 O 118.711 70.296 0.926 O.2 1 NIL_1    0.000
21 N 116.797 70.653 -0.199 N.am 1 NIL_1    0.000
22 N 118.436 76.322 0.139 N.am 1 NIL_1    0.000
23 C_1981 115.966 71.455 -1.130 C.3 1 NIL_1    0.000
24 C_2016 115.969 70.042 0.876 C.3 1 NIL_1    0.000
25 C_1984 118.092 76.984 -1.013 C.2 1 NIL_1    0.000
26 C_2017 117.876 76.647 1.486 C.3 1 NIL_1    0.000
27 C_1990 114.858 70.729 -1.874 C.2 1 NIL_1    0.000
28 C_2019 115.609 68.546 0.677 C.3 1 NIL_1    0.000
29 C_1983 117.145 78.189 -1.012 C.3 1 NIL_1    0.000
30 O 118.538 76.625 -2.086 O.2 1 NIL_1    0.000
31 C_2022 118.454 75.996 2.778 C.3 1 NIL_1    0.000
32 O 115.047 69.612 -2.317 O.2 1 NIL_1    0.000
33 N 113.640 71.331 -2.027 N.am 1 NIL_1    0.000
34 C_2020 114.983 67.986 1.970 C.3 1 NIL_1    0.000
35 C_2289 116.822 67.684 0.260 C.3 1 NIL_1    0.000
36 C_1964 117.911 79.451 -0.559 C.3 1 NIL_1    0.000
37 N 115.879 78.125 -0.240 N.am 1 NIL_1    0.000
38 C_2023 117.934 74.552 2.991 C.3 1 NIL_1    0.000
39 C_2287 118.054 76.847 4.004 C.3 1 NIL_1    0.000
40 C_1971 112.444 70.547 -1.668 C.3 1 NIL_1    0.000
41 C_1988 113.226 72.744 -1.789 C.3 1 NIL_1    0.000
42 C_1963 116.831 80.334 0.071 C.3 1 NIL_1    0.000
43 C_1962 115.774 79.341 0.585 C.3 1 NIL_1    0.000
44 C_1987 114.897 77.178 -0.311 C.2 1 NIL_1    0.000
45 C_1972 111.706 71.368 -0.582 C.3 1 NIL_1    0.000
46 C_1989 114.215 73.897 -2.026 C.2 1 NIL_1    0.000
47 C_1973 112.549 72.651 -0.412 C.3 1 NIL_1    0.000
48 C_2000 116.286 81.311 -0.945 C.2 1 NIL_1    0.000
49 NH 117.313 81.280 1.064 N.am 1 NIL_1    0.000
50 O 113.951 77.217 0.449 O.2 1 NIL_1    0.000
51 C_1986 115.049 76.076 -1.357 C.3 1 NIL_1    0.000
52 C_1992 110.280 71.666 -0.993 C.2 1 NIL_1    0.000
53 NH 111.444 70.651 0.658 N.am 1 NIL_1    0.000
54 O 115.227 73.731 -2.681 O.2 1 NIL_1    0.000
55 N 113.899 75.153 -1.591 N.am 1 NIL_1    0.000
56 N 116.553 82.569 -0.517 N.am 1 NIL_1    0.000
57 O 115.718 81.026 -1.983 O.2 1 NIL_1    0.000
58 C_2002 117.146 82.567 0.706 C.2 1 NIL_1    0.000
59 N 109.451 71.154 -0.055 N.am 1 NIL_1    0.000
60 O 109.925 72.265 -1.990 O.2 1 NIL_1    0.000
61 C_1994 110.134 70.542 0.942 C.2 1 NIL_1    0.000
62 C_2018 112.808 75.874 -2.304 C.3 1 NIL_1    0.000
63 C_2014 116.237 83.754 -1.342 C.3 1 NIL_1    0.000
64 O 117.471 83.523 1.380 O.2 1 NIL_1    0.000
65 C_2012 107.987 71.324 -0.064 C.3 1 NIL_1    0.000
66 O 109.664 70.003 1.923 O.2 1 NIL_1    0.000
67 C_2025 111.347 75.716 -1.802 C.3 1 NIL_1    0.000
68 C_2015 116.710 85.138 -0.939 C.2 1 NIL_1    0.000
69 C_2013 107.196 70.029 -0.091 C.2 1 NIL_1    0.000
70 C_2026 110.394 76.430 -2.784 C.3 1 NIL_1    0.000
71 C_2285 111.135 76.292 -0.386 C.3 1 NIL_1    0.000
72 C_2236 115.839 86.057 -0.509 C.2 1 NIL_1    0.000
73 C_2244 117.999 85.474 -1.035 C.2 1 NIL_1    0.000
74 C_2220 107.417 69.102 -1.031 C.2 1 NIL_1    0.000
75 C_2228 106.252 69.803 0.829 C.2 1 NIL_1    0.000
76 C_2238 116.246 87.284 -0.179 C.2 1 NIL_1    0.000
77 C_2242 118.410 86.698 -0.702 C.2 1 NIL_1    0.000
78 C_2222 106.709 67.970 -1.048 C.2 1 NIL_1    0.000
79 C_2226 105.541 68.674 0.814 C.2 1 NIL_1    0.000
80 C_2240 117.543 87.619 -0.272 C.2 1 NIL_1    0.000
81 C_2224 105.770 67.757 -0.126 C.2 1 NIL_1    0.000
82 O 118.046 88.856 0.046 O.3 1 NIL_1    0.000
83 C_2261 117.137 89.951 0.307 C.3 1 NIL_1    0.000
84 H_22611 116.476 90.086 -0.553 H 1 NIL_1    0.000
85 H_22612 117.722 90.861 0.463 H 1 NIL_1    0.000
86 H_22613 116.553 89.737 1.206 H 1 NIL_1    0.000
87 H_2224 105.189 66.837 -0.140 H 1 NIL_1    0.000
88 H_2226 104.777 68.504 1.568 H 1 NIL_1    0.000
89 H_2222 106.897 67.222 -1.814 H 1 NIL_1    0.000
90 H_2242 119.465 86.950 -0.789 H 1 NIL_1    0.000
91 H_2238 115.500 87.997 0.163 H 1 NIL_1    0.000
92 H_2228 106.055 70.544 1.601 H 1 NIL_1    0.000
93 H_2220 108.179 69.263 -1.790 H 1 NIL_1    0.000
94 H_2244 118.726 84.746 -1.388 H 1 NIL_1    0.000
95 H_2236 114.783 85.809 -0.431 H 1 NIL_1    0.000
96 H_22851 111.399 77.353 -0.349 H 1 NIL_1    0.000
97 H_22852 111.735 75.757 0.353 H 1 NIL_1    0.000
98 H_22853 110.085 76.199 -0.097 H 1 NIL_1    0.000
99 H_20261 110.613 77.500 -2.819 H 1 NIL_1    0.000
100 H_20262 109.354 76.305 -2.473 H 1 NIL_1    0.000
101 H_20263 110.498 76.017 -3.789 H 1 NIL_1    0.000
102 H_2025 111.072 74.665 -1.807 H 1 NIL_1    0.000
103 H_20121 107.696 71.931 -0.926 H 1 NIL_1    0.000
104 H_20122 107.725 71.897 0.828 H 1 NIL_1    0.000
105 H_20141 115.150 83.779 -1.461 H 1 NIL_1    0.000
106 H_20142 116.652 83.557 -2.335 H 1 NIL_1    0.000
107 H_20181 112.835 75.543 -3.347 H 1 NIL_1    0.000
108 H_20182 113.027 76.944 -2.316 H 1 NIL_1    0.000
109 H_19861 115.314 76.550 -2.308 H 1 NIL_1    0.000
110 H_19862 115.900 75.485 -1.026 H 1 NIL_1    0.000
111 H_19731 113.300 72.521 0.370 H 1 NIL_1    0.000
112 H_19732 111.937 73.513 -0.160 H 1 NIL_1    0.000
113 H_19621 115.993 79.074 1.622 H 1 NIL_1    0.000
114 H_19622 114.770 79.770 0.524 H 1 NIL_1    0.000
115 H_1988 112.442 72.955 -2.523 H 1 NIL_1    0.000
116 H_19711 112.726 69.568 -1.267 H 1 NIL_1    0.000
117 H_19712 111.823 70.400 -2.555 H 1 NIL_1    0.000
118 H_22871 118.460 76.411 4.920 H 1 NIL_1    0.000
119 H_22872 116.968 76.907 4.102 H 1 NIL_1    0.000
120 H_22873 118.450 77.861 3.915 H 1 NIL_1    0.000
121 H_20231 116.842 74.527 2.977 H 1 NIL_1    0.000
122 H_20232 118.273 74.165 3.955 H 1 NIL_1    0.000
123 H_20233 118.300 73.870 2.227 H 1 NIL_1    0.000
124 H_19641 118.667 79.206 0.188 H 1 NIL_1    0.000
125 H_19642 118.417 79.944 -1.394 H 1 NIL_1    0.000
126 H_22891 117.617 67.737 1.008 H 1 NIL_1    0.000
127 H_22892 117.224 68.013 -0.701 H 1 NIL_1    0.000
128 H_22893 116.523 66.639 0.151 H 1 NIL_1    0.000
129 H_20201 115.699 68.014 2.794 H 1 NIL_1    0.000
130 H_20202 114.669 66.951 1.820 H 1 NIL_1    0.000
131 H_20203 114.105 68.571 2.256 H 1 NIL_1    0.000
132 H_2022 119.544 76.001 2.748 H 1 NIL_1    0.000
133 H_1983 116.853 78.346 -2.055 H 1 NIL_1    0.000
134 H_2019 114.851 68.467 -0.102 H 1 NIL_1    0.000
135 H_20171 116.807 76.420 1.468 H 1 NIL_1    0.000
136 H_20172 117.976 77.725 1.616 H 1 NIL_1    0.000
137 H_20161 115.035 70.605 0.980 H 1 NIL_1    0.000
138 H_20162 116.492 70.153 1.830 H 1 NIL_1    0.000
139 H_19811 116.566 71.910 -1.911 H 1 NIL_1    0.000
140 H_19812 115.506 72.244 -0.532 H 1 NIL_1    0.000
141 H_19751 119.918 74.999 0.984 H 1 NIL_1    0.000
142 H_19752 120.143 75.403 -0.702 H 1 NIL_1    0.000
143 H_1978 118.437 71.619 -2.024 H 1 NIL_1    0.000
144 H_19611 120.170 69.610 -1.243 H 1 NIL_1    0.000
145 H_19612 120.409 70.755 -2.568 H 1 NIL_1    0.000
146 H_19591 121.337 73.252 0.321 H 1 NIL_1    0.000
147 H_19592 121.329 73.409 -1.460 H 1 NIL_1    0.000
148 H_22541 124.560 67.627 -1.123 H 1 NIL_1    0.000
149 H_22542 125.372 67.140 0.442 H 1 NIL_1    0.000
150 H_22521 127.568 68.008 -0.436 H 1 NIL_1    0.000
151 H_22522 126.745 68.484 -1.998 H 1 NIL_1    0.000
152 H_20101 125.583 71.307 -0.617 H 1 NIL_1    0.000
153 H_20102 125.126 70.207 -1.927 H 1 NIL_1    0.000
154 H_2011 126.062 69.502 0.853 H 1 NIL_1    0.000
155 HH 112.181 70.306 1.256 H 1 NIL_1    0.000
156 HH 117.721 80.986 1.939 H 1 NIL_1    0.000
157 HH 121.052 70.699 1.285 H 1 NIL_1    0.000
@<TRIPOS>BOND
1 1 2 1 
2 3 1 1 
3 4 3 1 
4 4 1 1 
5 5 6 1 
6 5 2 1 
7 6 8 1 
8 6 9 2 
9 7 5 1 
10 7 11 2 
11 8 12 1 
12 10 7 1 
13 10 8 1 
14 13 8 1 
15 13 15 1 
16 14 12 1 
17 14 15 1 
18 16 14 1 
19 17 15 1 
20 18 16 2 
21 19 22 1 
22 19 16 1 
23 20 17 2 
24 21 17 1 
25 21 24 1 
26 22 25 1 
27 23 21 1 
28 23 27 1 
29 25 29 1 
30 26 22 1 
31 28 24 1 
32 30 25 2 
33 31 26 1 
34 32 27 2 
35 33 40 1 
36 33 41 1 
37 33 27 1 
38 34 28 1 
39 35 28 1 
40 36 42 1 
41 36 29 1 
42 37 43 1 
43 37 29 1 
44 38 31 1 
45 39 31 1 
46 42 43 1 
47 44 37 1 
48 45 40 1 
49 46 41 1 
50 47 45 1 
51 47 41 1 
52 48 42 1 
53 48 57 2 
54 49 42 1 
55 50 44 2 
56 51 55 1 
57 51 44 1 
58 52 45 1 
59 52 60 2 
60 53 61 1 
61 53 45 1 
62 54 46 2 
63 55 46 1 
64 55 62 1 
65 56 48 1 
66 56 63 1 
67 58 56 1 
68 58 49 1 
69 58 64 2 
70 59 52 1 
71 59 65 1 
72 61 59 1 
73 61 66 2 
74 67 62 1 
75 68 63 1 
76 69 65 1 
77 70 67 1 
78 71 67 1 
79 72 68 2 
80 73 77 2 
81 73 68 1 
82 74 69 2 
83 75 79 2 
84 75 69 1 
85 76 72 1 
86 77 80 1 
87 78 74 1 
88 79 81 1 
89 80 76 2 
90 81 78 2 
91 82 80 1 
92 83 82 1 
93 84 83 1 
94 85 83 1 
95 86 83 1 
96 87 81 1 
97 88 79 1 
98 89 78 1 
99 90 77 1 
100 91 76 1 
101 92 75 1 
102 93 74 1 
103 94 73 1 
104 95 72 1 
105 96 71 1 
106 97 71 1 
107 98 71 1 
108 99 70 1 
109 100 70 1 
110 101 70 1 
111 102 67 1 
112 103 65 1 
113 104 65 1 
114 105 63 1 
115 106 63 1 
116 107 62 1 
117 108 62 1 
118 109 51 1 
119 110 51 1 
120 111 47 1 
121 112 47 1 
122 113 43 1 
123 114 43 1 
124 115 41 1 
125 116 40 1 
126 117 40 1 
127 118 39 1 
128 119 39 1 
129 120 39 1 
130 121 38 1 
131 122 38 1 
132 123 38 1 
133 124 36 1 
134 125 36 1 
135 126 35 1 
136 127 35 1 
137 128 35 1 
138 129 34 1 
139 130 34 1 
140 131 34 1 
141 132 31 1 
142 133 29 1 
143 134 28 1 
144 135 26 1 
145 136 26 1 
146 137 24 1 
147 138 24 1 
148 139 23 1 
149 140 23 1 
150 141 19 1 
151 142 19 1 
152 143 15 1 
153 144 13 1 
154 145 13 1 
155 146 12 1 
156 147 12 1 
157 148 4 1 
158 149 4 1 
159 150 3 1 
160 151 3 1 
161 152 2 1 
162 153 2 1 
163 154 1 1 
164 155 53 1 
165 156 49 1 
166 157 10 1 
@<TRIPOS>SUBSTRUCTURE
1 NIL_1 1 RESIDUE 1 A NIL 1
