@<TRIPOS>MOLECULE
NIL
78 84 1 0 0
POLYMER
CHARGES


@<TRIPOS>ATOM
1 C_2553 160.715 178.121 1.05985 C.2 1 NIL_1    0.000
2 N 161.939 177.637 0.767 N.am 1 NIL_1    0.000
3 N 160.825 179.470 1.150 N.am 1 NIL_1    0.000
4 O 159.709 177.458 1.218 O.2 1 NIL_1    0.000
5 C_2520 162.976 178.666 0.731 C.3 1 NIL_1    0.000
6 C_2636 162.307 176.227 0.551 C.3 1 NIL_1    0.000
7 C_2557 162.100 179.884 0.951 C.2 1 NIL_1    0.000
8 C_2600 159.727 180.388 1.523 C.3 1 NIL_1    0.000
9 C_2518 164.042 178.548 1.840 C.3 1 NIL_1    0.000
10 C_2522 163.787 178.784 -0.578 C.3 1 NIL_1    0.000
11 C_2657 161.544 175.590 -0.592 C.2 1 NIL_1    0.000
12 O 162.472 181.041 0.958 O.2 1 NIL_1    0.000
13 C_2602 158.352 180.068 0.967 C.2 1 NIL_1    0.000
14 C_2500 165.228 179.341 1.265 C.3 1 NIL_1    0.000
15 N 165.151 179.174 -0.194 N.am 1 NIL_1    0.000
16 OH 162.097 175.797 -1.760 O.3 1 NIL_1    0.000
17 O 160.510 174.968 -0.450 O.2 1 NIL_1    0.000
18 C_2604 158.087 180.250 -0.331 C.2 1 NIL_1    0.000
19 C_2612 157.383 179.598 1.764 C.2 1 NIL_1    0.000
20 C_2510 166.586 179.003 1.866 C.2 1 NIL_1    0.000
21 C_2504 166.199 179.317 -1.040 C.2 1 NIL_1    0.000
22 C_2606 156.883 179.957 -0.827 C.2 1 NIL_1    0.000
23 C_2610 156.178 179.307 1.271 C.2 1 NIL_1    0.000
24 N 167.635 179.057 1.010 N.am 1 NIL_1    0.000
25 O 166.725 178.674 3.028 O.2 1 NIL_1    0.000
26 C_2506 167.553 179.534 -0.379 C.3 1 NIL_1    0.000
27 O 166.066 179.238 -2.246 O.2 1 NIL_1    0.000
28 C_2608 155.928 179.482 -0.027 C.2 1 NIL_1    0.000
29 C_2532 168.999 178.582 1.290 C.3 1 NIL_1    0.000
30 C_2528 168.730 178.881 -1.120 C.3 1 NIL_1    0.000
31 C_2530 169.801 178.729 -0.024 C.3 1 NIL_1    0.000
32 C_2538 170.703 179.945 0.012 C.2 1 NIL_1    0.000
33 N 170.815 177.709 -0.294 N.am 1 NIL_1    0.000
34 N 171.970 179.556 -0.272 N.am 1 NIL_1    0.000
35 O 170.355 181.086 0.249 O.2 1 NIL_1    0.000
36 C_2542 172.050 178.217 -0.478 C.2 1 NIL_1    0.000
37 C_2640 170.432 176.285 -0.339 C.3 1 NIL_1    0.000
38 C_2594 173.097 180.508 -0.381 C.3 1 NIL_1    0.000
39 O 173.039 177.576 -0.777 O.2 1 NIL_1    0.000
40 C_2648 170.663 175.627 -1.686 C.2 1 NIL_1    0.000
41 C_2596 174.466 179.986 0.014 C.2 1 NIL_1    0.000
42 OH 170.904 174.346 -1.592 O.3 1 NIL_1    0.000
43 O 170.626 176.214 -2.748 O.2 1 NIL_1    0.000
44 C_2620 175.414 179.797 -0.912 C.2 1 NIL_1    0.000
45 C_2628 174.742 179.697 1.291 C.2 1 NIL_1    0.000
46 C_2622 176.614 179.325 -0.569 C.2 1 NIL_1    0.000
47 C_2626 175.940 179.223 1.636 C.2 1 NIL_1    0.000
48 C_2624 176.877 179.036 0.706 C.2 1 NIL_1    0.000
49 H_2624 177.856 178.650 0.985 H 1 NIL_1    0.000
50 H_2626 176.156 178.989 2.676 H 1 NIL_1    0.000
51 H_2622 177.378 179.174 -1.328 H 1 NIL_1    0.000
52 H_2628 173.986 179.849 2.059 H 1 NIL_1    0.000
53 H_2620 175.209 180.022 -1.957 H 1 NIL_1    0.000
54 H_25941 172.874 181.372 0.251 H 1 NIL_1    0.000
55 H_25942 173.127 180.871 -1.413 H 1 NIL_1    0.000
56 H_26401 169.372 176.163 -0.100 H 1 NIL_1    0.000
57 H_26402 171.023 175.745 0.407 H 1 NIL_1    0.000
58 H_25281 168.425 177.899 -1.488 H 1 NIL_1    0.000
59 H_25282 169.072 179.483 -1.965 H 1 NIL_1    0.000
60 H_25321 168.946 177.535 1.596 H 1 NIL_1    0.000
61 H_25322 169.448 179.167 2.096 H 1 NIL_1    0.000
62 H_2608 154.948 179.235 -0.430 H 1 NIL_1    0.000
63 H_2506 167.703 180.617 -0.350 H 1 NIL_1    0.000
64 H_2610 155.399 178.922 1.924 H 1 NIL_1    0.000
65 H_2606 156.682 180.103 -1.884 H 1 NIL_1    0.000
66 H_2612 157.577 179.443 2.824 H 1 NIL_1    0.000
67 H_2604 158.858 180.636 -0.993 H 1 NIL_1    0.000
68 H_2500 165.069 180.403 1.469 H 1 NIL_1    0.000
69 H_25221 163.837 177.824 -1.096 H 1 NIL_1    0.000
70 H_25222 163.352 179.532 -1.248 H 1 NIL_1    0.000
71 H_25181 164.336 177.505 1.981 H 1 NIL_1    0.000
72 H_25182 163.701 178.948 2.797 H 1 NIL_1    0.000
73 H_26001 159.995 181.398 1.198 H 1 NIL_1    0.000
74 H_26002 159.677 180.411 2.616 H 1 NIL_1    0.000
75 H_26361 162.090 175.660 1.461 H 1 NIL_1    0.000
76 H_26362 163.374 176.137 0.330 H 1 NIL_1    0.000
77 HH 171.049 174.008 -2.494 H 1 NIL_1    0.000
78 HH 161.540 175.358 -2.429 H 1 NIL_1    0.000
@<TRIPOS>BOND
1 2 5 1 
2 2 1 1 
3 2 6 1 
4 3 1 1 
5 4 1 2 
6 5 9 1 
7 5 7 1 
8 6 75 1 
9 6 76 1 
10 7 3 1 
11 8 3 1 
12 8 73 1 
13 8 74 1 
14 9 14 1 
15 9 71 1 
16 9 72 1 
17 10 5 1 
18 10 15 1 
19 10 69 1 
20 10 70 1 
21 11 6 1 
22 12 7 2 
23 13 8 1 
24 15 14 1 
25 16 11 1 
26 16 78 1 
27 17 11 2 
28 18 13 2 
29 18 67 1 
30 19 23 2 
31 19 13 1 
32 19 66 1 
33 20 24 1 
34 20 14 1 
35 20 25 2 
36 21 15 1 
37 21 27 2 
38 22 18 1 
39 22 65 1 
40 23 28 1 
41 23 64 1 
42 24 26 1 
43 26 21 1 
44 26 63 1 
45 28 22 2 
46 28 62 1 
47 29 31 1 
48 29 24 1 
49 29 60 1 
50 29 61 1 
51 30 26 1 
52 30 58 1 
53 30 59 1 
54 31 30 1 
55 32 31 1 
56 32 35 2 
57 33 36 1 
58 33 31 1 
59 33 37 1 
60 34 32 1 
61 34 38 1 
62 36 34 1 
63 36 39 2 
64 37 56 1 
65 37 57 1 
66 38 54 1 
67 38 55 1 
68 40 37 1 
69 41 38 1 
70 41 44 2 
71 41 45 1 
72 42 40 1 
73 42 77 1 
74 43 40 2 
75 45 47 2 
76 46 44 1 
77 47 48 1 
78 48 46 2 
79 49 48 1 
80 50 47 1 
81 51 46 1 
82 52 45 1 
83 53 44 1 
84 68 14 1 
@<TRIPOS>SUBSTRUCTURE
1 NIL_1 1 RESIDUE 1 A NIL 1
