@<TRIPOS>MOLECULE
NIL
162 171 1 0 0
POLYMER
CHARGES


@<TRIPOS>ATOM
1 CQ 106.046 74.5545 -8.45183 C.3 1 NIL_1    0.000
2 C_1816 104.996 73.445 -8.398 C.3 1 NIL_1    0.000
3 C_1818 107.323 73.804 -8.823 C.3 1 NIL_1    0.000
4 C_1854 106.180 75.270 -7.126 C.2 1 NIL_1    0.000
5 NH 105.715 75.691 -9.297 N.am 1 NIL_1    0.000
6 N 105.696 72.201 -8.020 N.am 1 NIL_1    0.000
7 CP 107.173 72.415 -8.152 C.3 1 NIL_1    0.000
8 N 105.961 76.591 -7.328 N.am 1 NIL_1    0.000
9 O 106.437 74.754 -6.055 O.2 1 NIL_1    0.000
10 C_1856 105.661 76.855 -8.627 C.2 1 NIL_1    0.000
11 C_1841 105.004 71.121 -7.551 C.2 1 NIL_1    0.000
12 C_1838 107.974 71.307 -8.863 C.2 1 NIL_1    0.000
13 C_1868 106.029 77.575 -6.225 C.3 1 NIL_1    0.000
14 O 105.385 77.928 -9.123 O.2 1 NIL_1    0.000
15 O 103.789 71.112 -7.577 O.2 1 NIL_1    0.000
16 C_1840 105.747 69.907 -7.024 C.3 1 NIL_1    0.000
17 O 107.404 70.450 -9.514 O.2 1 NIL_1    0.000
18 N 109.341 71.278 -8.724 N.am 1 NIL_1    0.000
19 C_1869 106.141 79.050 -6.559 C.2 1 NIL_1    0.000
20 N 105.190 69.337 -5.772 N.am 1 NIL_1    0.000
21 C_1829 110.100 70.020 -8.976 C.3 1 NIL_1    0.000
22 C_1871 110.131 72.528 -8.553 C.3 1 NIL_1    0.000
23 C_2204 105.092 79.863 -6.402 C.2 1 NIL_1    0.000
24 C_2212 107.291 79.561 -7.010 C.2 1 NIL_1    0.000
25 C_1843 104.914 68.013 -5.518 C.2 1 NIL_1    0.000
26 C_1872 105.301 70.303 -4.644 C.3 1 NIL_1    0.000
27 C_1830 111.306 69.665 -8.097 C.2 1 NIL_1    0.000
28 C_1876 111.666 72.518 -8.757 C.3 1 NIL_1    0.000
29 C_2206 105.185 81.160 -6.699 C.2 1 NIL_1    0.000
30 C_2210 107.387 80.858 -7.308 C.2 1 NIL_1    0.000
31 AP 104.930 66.902 -6.579 C.3 1 NIL_1    0.000
32 O 104.627 67.670 -4.386 O.2 1 NIL_1    0.000
33 C_1879 103.965 70.675 -3.949 C.3 1 NIL_1    0.000
34 O 112.342 69.319 -8.630 O.2 1 NIL_1    0.000
35 N 111.254 69.788 -6.739 N.am 1 NIL_1    0.000
36 O 112.173 73.868 -8.871 O.3 1 NIL_1    0.000
37 C_2208 106.333 81.664 -7.163 C.2 1 NIL_1    0.000
38 C_1827 103.553 66.817 -7.270 C.3 1 NIL_1    0.000
39 N 105.942 66.860 -7.665 N.am 1 NIL_1    0.000
40 O 103.132 71.508 -4.783 O.3 1 NIL_1    0.000
41 C_1813 112.446 69.726 -5.863 C.3 1 NIL_1    0.000
42 BP 110.082 70.083 -5.901 C.3 1 NIL_1    0.000
43 C_1878 111.897 74.567 -10.107 C.3 1 NIL_1    0.000
44 O 106.458 82.988 -7.477 O.3 1 NIL_1    0.000
45 AQ 103.871 66.021 -8.538 C.3 1 NIL_1    0.000
46 C_1825 105.257 66.546 -8.928 C.3 1 NIL_1    0.000
47 C_1844 107.293 66.967 -7.590 C.2 1 NIL_1    0.000
48 C_1881 103.481 72.910 -4.831 C.3 1 NIL_1    0.000
49 BQ 112.008 70.111 -4.434 C.3 1 NIL_1    0.000
50 C_1833 109.096 68.947 -5.597 C.2 1 NIL_1    0.000
51 C_1815 110.632 70.753 -4.629 C.3 1 NIL_1    0.000
52 C_2271 105.556 83.470 -8.501 C.3 1 NIL_1    0.000
53 C_1846 102.854 66.118 -9.648 C.2 1 NIL_1    0.000
54 NH 103.850 64.582 -8.319 N.am 1 NIL_1    0.000
55 O 107.945 67.094 -8.609 O.2 1 NIL_1    0.000
56 C_1835 107.970 66.845 -6.234 C.3 1 NIL_1    0.000
57 C_1850 111.926 68.960 -3.455 C.2 1 NIL_1    0.000
58 NH 112.972 70.945 -3.729 N.am 1 NIL_1    0.000
59 O 108.156 69.222 -4.879 O.2 1 NIL_1    0.000
60 N 109.184 67.687 -6.130 N.am 1 NIL_1    0.000
61 N 102.416 64.864 -9.930 N.am 1 NIL_1    0.000
62 O 102.511 67.139 -10.211 O.2 1 NIL_1    0.000
63 C_1848 103.004 63.935 -9.136 C.2 1 NIL_1    0.000
64 N 112.724 69.248 -2.403 N.am 1 NIL_1    0.000
65 O 111.228 67.971 -3.538 O.2 1 NIL_1    0.000
66 C_1852 113.368 70.426 -2.555 C.2 1 NIL_1    0.000
67 C_1870 110.419 66.879 -6.264 C.3 1 NIL_1    0.000
68 C_1866 101.518 64.515 -11.045 C.3 1 NIL_1    0.000
69 O 102.822 62.734 -9.154 O.2 1 NIL_1    0.000
70 C_1864 112.785 68.429 -1.183 C.3 1 NIL_1    0.000
71 O 114.154 70.934 -1.780 O.2 1 NIL_1    0.000
72 C_1873 110.767 66.383 -7.680 C.3 1 NIL_1    0.000
73 C_1867 100.308 65.406 -11.246 C.2 1 NIL_1    0.000
74 C_1865 113.983 67.517 -0.991 C.2 1 NIL_1    0.000
75 O 112.150 65.972 -7.661 O.3 1 NIL_1    0.000
76 C_2172 99.296 65.390 -10.376 C.2 1 NIL_1    0.000
77 C_2180 100.229 66.214 -12.308 C.2 1 NIL_1    0.000
78 C_2196 114.270 67.092 0.242 C.2 1 NIL_1    0.000
79 C_2188 114.759 67.113 -2.003 C.2 1 NIL_1    0.000
80 C_1875 112.682 65.515 -8.923 C.3 1 NIL_1    0.000
81 C_2174 98.228 66.166 -10.564 C.2 1 NIL_1    0.000
82 C_2178 99.163 66.992 -12.497 C.2 1 NIL_1    0.000
83 C_2194 115.308 66.289 0.468 C.2 1 NIL_1    0.000
84 C_2190 115.802 66.311 -1.780 C.2 1 NIL_1    0.000
85 C_2176 98.143 66.973 -11.626 C.2 1 NIL_1    0.000
86 C_2192 116.090 65.887 -0.545 C.2 1 NIL_1    0.000
87 O 97.006 67.733 -11.758 O.3 1 NIL_1    0.000
88 O 117.180 65.068 -0.387 O.3 1 NIL_1    0.000
89 C_2273 96.841 68.596 -12.912 C.3 1 NIL_1    0.000
90 C_2269 117.350 64.341 0.856 C.3 1 NIL_1    0.000
91 H_22691 117.485 65.043 1.684 H 1 NIL_1    0.000
92 H_22692 118.240 63.711 0.776 H 1 NIL_1    0.000
93 H_22693 116.474 63.712 1.034 H 1 NIL_1    0.000
94 H_22731 96.912 68.006 -13.830 H 1 NIL_1    0.000
95 H_22732 97.610 69.374 -12.902 H 1 NIL_1    0.000
96 H_22733 95.854 69.062 -12.862 H 1 NIL_1    0.000
97 H_2190 116.424 65.998 -2.617 H 1 NIL_1    0.000
98 H_2194 115.498 65.978 1.490 H 1 NIL_1    0.000
99 H_2178 99.149 67.630 -13.376 H 1 NIL_1    0.000
100 H_2174 97.415 66.135 -9.842 H 1 NIL_1    0.000
101 H_18751 112.631 66.328 -9.652 H 1 NIL_1    0.000
102 H_18752 112.104 64.657 -9.276 H 1 NIL_1    0.000
103 H_18753 113.723 65.215 -8.778 H 1 NIL_1    0.000
104 H_2188 114.552 67.432 -3.022 H 1 NIL_1    0.000
105 H_2196 113.650 67.403 1.081 H 1 NIL_1    0.000
106 H_2180 101.042 66.243 -13.030 H 1 NIL_1    0.000
107 H_2172 99.340 64.739 -9.505 H 1 NIL_1    0.000
108 H_18731 110.139 65.530 -7.953 H 1 NIL_1    0.000
109 H_18732 110.643 67.174 -8.420 H 1 NIL_1    0.000
110 H_18641 111.881 67.815 -1.133 H 1 NIL_1    0.000
111 H_18642 112.737 69.118 -0.336 H 1 NIL_1    0.000
112 H_18661 101.161 63.492 -10.898 H 1 NIL_1    0.000
113 H_18662 102.122 64.512 -11.956 H 1 NIL_1    0.000
114 H_18701 110.330 66.004 -5.614 H 1 NIL_1    0.000
115 H_18702 111.264 67.442 -5.892 H 1 NIL_1    0.000
116 H_18351 107.265 67.101 -5.446 H 1 NIL_1    0.000
117 H_18352 108.225 65.788 -6.106 H 1 NIL_1    0.000
118 H_22711 105.815 84.506 -8.734 H 1 NIL_1    0.000
119 H_22712 104.525 83.428 -8.144 H 1 NIL_1    0.000
120 H_22713 105.665 82.856 -9.399 H 1 NIL_1    0.000
121 H_18151 110.755 71.820 -4.833 H 1 NIL_1    0.000
122 H_18152 109.980 70.654 -3.756 H 1 NIL_1    0.000
123 H_18811 103.463 73.323 -3.819 H 1 NIL_1    0.000
124 H_18812 102.747 73.434 -5.449 H 1 NIL_1    0.000
125 H_18813 104.476 73.029 -5.266 H 1 NIL_1    0.000
126 H_18251 105.813 65.800 -9.504 H 1 NIL_1    0.000
127 H_18252 105.165 67.464 -9.514 H 1 NIL_1    0.000
128 H_18781 110.834 74.811 -10.167 H 1 NIL_1    0.000
129 H_18782 112.184 73.937 -10.954 H 1 NIL_1    0.000
130 H_18783 112.479 75.491 -10.122 H 1 NIL_1    0.000
131 HP 109.467 70.839 -6.382 H 1 NIL_1    0.000
132 H_18131 113.179 70.450 -6.229 H 1 NIL_1    0.000
133 H_18132 112.895 68.730 -5.882 H 1 NIL_1    0.000
134 H_18271 102.798 66.335 -6.645 H 1 NIL_1    0.000
135 H_18272 103.204 67.818 -7.540 H 1 NIL_1    0.000
136 H_18791 103.403 69.771 -3.702 H 1 NIL_1    0.000
137 H_18792 104.175 71.207 -3.017 H 1 NIL_1    0.000
138 HP 105.066 65.972 -6.018 H 1 NIL_1    0.000
139 H_2210 108.330 81.257 -7.677 H 1 NIL_1    0.000
140 H_2206 104.319 81.802 -6.556 H 1 NIL_1    0.000
141 H_18761 112.152 72.075 -7.885 H 1 NIL_1    0.000
142 H_18762 111.943 71.962 -9.658 H 1 NIL_1    0.000
143 H_18721 105.801 71.217 -4.971 H 1 NIL_1    0.000
144 H_18722 105.946 69.857 -3.883 H 1 NIL_1    0.000
145 H_2212 108.158 78.917 -7.140 H 1 NIL_1    0.000
146 H_2204 104.150 79.470 -6.028 H 1 NIL_1    0.000
147 H_18711 109.921 72.938 -7.560 H 1 NIL_1    0.000
148 H_18712 109.747 73.214 -9.304 H 1 NIL_1    0.000
149 H_18291 110.445 70.036 -10.013 H 1 NIL_1    0.000
150 H_18292 109.417 69.176 -8.862 H 1 NIL_1    0.000
151 H_18401 105.697 69.200 -7.845 H 1 NIL_1    0.000
152 H_18402 106.791 70.169 -6.846 H 1 NIL_1    0.000
153 H_18681 106.894 77.316 -5.608 H 1 NIL_1    0.000
154 H_18682 105.145 77.419 -5.599 H 1 NIL_1    0.000
155 HP 107.577 72.477 -7.137 H 1 NIL_1    0.000
156 H_18181 108.197 74.358 -8.477 H 1 NIL_1    0.000
157 H_18182 107.378 73.687 -9.911 H 1 NIL_1    0.000
158 H_18161 104.215 73.695 -7.674 H 1 NIL_1    0.000
159 H_18162 104.549 73.305 -9.386 H 1 NIL_1    0.000
160 HH 113.313 71.817 -4.105 H 1 NIL_1    0.000
161 HH 104.436 64.124 -7.636 H 1 NIL_1    0.000
162 HH 105.550 75.604 -10.289 H 1 NIL_1    0.000
@<TRIPOS>BOND
1 1 2 1 
2 3 1 1 
3 4 1 1 
4 5 10 1 
5 5 1 1 
6 5 162 1 
7 6 2 1 
8 7 3 1 
9 7 6 1 
10 7 155 1 
11 8 4 1 
12 9 4 2 
13 10 8 1 
14 11 6 1 
15 12 7 1 
16 13 8 1 
17 13 153 1 
18 13 154 1 
19 14 10 2 
20 15 11 2 
21 16 20 1 
22 16 11 1 
23 16 151 1 
24 16 152 1 
25 17 12 2 
26 18 12 1 
27 19 13 1 
28 20 25 1 
29 21 18 1 
30 21 27 1 
31 21 149 1 
32 21 150 1 
33 22 18 1 
34 22 28 1 
35 22 147 1 
36 22 148 1 
37 23 19 2 
38 23 146 1 
39 24 30 2 
40 24 19 1 
41 24 145 1 
42 25 31 1 
43 26 20 1 
44 26 33 1 
45 26 143 1 
46 26 144 1 
47 27 35 1 
48 28 141 1 
49 28 142 1 
50 29 23 1 
51 29 140 1 
52 30 37 1 
53 30 139 1 
54 31 138 1 
55 32 25 2 
56 33 136 1 
57 33 137 1 
58 34 27 2 
59 36 28 1 
60 37 29 2 
61 38 45 1 
62 38 31 1 
63 38 134 1 
64 38 135 1 
65 39 46 1 
66 39 31 1 
67 39 47 1 
68 40 33 1 
69 41 35 1 
70 41 49 1 
71 41 132 1 
72 41 133 1 
73 42 51 1 
74 42 35 1 
75 42 131 1 
76 43 36 1 
77 43 128 1 
78 43 129 1 
79 43 130 1 
80 44 37 1 
81 45 46 1 
82 46 126 1 
83 46 127 1 
84 48 40 1 
85 48 123 1 
86 48 124 1 
87 48 125 1 
88 50 42 1 
89 50 59 2 
90 51 49 1 
91 52 44 1 
92 52 118 1 
93 52 119 1 
94 52 120 1 
95 53 45 1 
96 54 63 1 
97 54 45 1 
98 54 161 1 
99 55 47 2 
100 56 60 1 
101 56 47 1 
102 56 116 1 
103 56 117 1 
104 57 49 1 
105 58 66 1 
106 58 49 1 
107 58 160 1 
108 60 50 1 
109 61 53 1 
110 62 53 2 
111 63 61 1 
112 64 57 1 
113 65 57 2 
114 66 64 1 
115 67 60 1 
116 67 72 1 
117 67 114 1 
118 67 115 1 
119 68 61 1 
120 68 112 1 
121 68 113 1 
122 69 63 2 
123 70 64 1 
124 70 74 1 
125 71 66 2 
126 73 68 1 
127 73 76 2 
128 73 77 1 
129 74 78 1 
130 75 72 1 
131 77 82 2 
132 79 84 1 
133 79 74 2 
134 79 104 1 
135 80 75 1 
136 81 76 1 
137 82 85 1 
138 83 78 2 
139 84 86 2 
140 84 97 1 
141 85 81 2 
142 86 88 1 
143 86 83 1 
144 87 85 1 
145 89 87 1 
146 89 96 1 
147 90 88 1 
148 91 90 1 
149 92 90 1 
150 93 90 1 
151 94 89 1 
152 95 89 1 
153 98 83 1 
154 99 82 1 
155 100 81 1 
156 101 80 1 
157 102 80 1 
158 103 80 1 
159 105 78 1 
160 106 77 1 
161 107 76 1 
162 108 72 1 
163 109 72 1 
164 110 70 1 
165 111 70 1 
166 121 51 1 
167 122 51 1 
168 156 3 1 
169 157 3 1 
170 158 2 1 
171 159 2 1 
@<TRIPOS>SUBSTRUCTURE
1 NIL_1 1 RESIDUE 1 A NIL 1
