@<TRIPOS>MOLECULE
NIL
162 171 1 0 0
POLYMER
CHARGES


@<TRIPOS>ATOM
1 CQ 97.0525 66.4116 -18.5786 C.3 1 NIL_1    0.000
2 C_1816 96.211 65.155 -18.852 C.3 1 NIL_1    0.000
3 C_1818 97.761 66.144 -17.238 C.3 1 NIL_1    0.000
4 C_1854 96.177 67.643 -18.531 C.2 1 NIL_1    0.000
5 NH 97.933 66.794 -19.671 N.am 1 NIL_1    0.000
6 N 95.960 64.513 -17.553 N.am 1 NIL_1    0.000
7 CP 96.901 65.058 -16.558 C.3 1 NIL_1    0.000
8 N 96.590 68.494 -19.504 N.am 1 NIL_1    0.000
9 O 95.262 67.839 -17.753 O.2 1 NIL_1    0.000
10 C_1856 97.647 68.000 -20.190 C.2 1 NIL_1    0.000
11 C_1841 94.905 63.684 -17.320 C.2 1 NIL_1    0.000
12 C_1838 97.746 64.034 -15.794 C.2 1 NIL_1    0.000
13 C_1868 95.990 69.817 -19.759 C.3 1 NIL_1    0.000
14 O 98.242 68.534 -21.104 O.2 1 NIL_1    0.000
15 O 94.256 63.226 -18.241 O.2 1 NIL_1    0.000
16 C_1840 94.485 63.408 -15.880 C.3 1 NIL_1    0.000
17 O 97.814 64.168 -14.586 O.2 1 NIL_1    0.000
18 N 98.368 62.967 -16.402 N.am 1 NIL_1    0.000
19 C_1869 95.976 70.673 -18.509 C.2 1 NIL_1    0.000
20 N 95.128 62.309 -15.096 N.am 1 NIL_1    0.000
21 C_1829 99.066 61.996 -15.507 C.3 1 NIL_1    0.000
22 C_1871 98.710 62.885 -17.844 C.3 1 NIL_1    0.000
23 C_2204 97.112 70.958 -17.868 C.2 1 NIL_1    0.000
24 C_2212 94.824 71.129 -18.010 C.2 1 NIL_1    0.000
25 C_1843 95.562 61.134 -15.659 C.2 1 NIL_1    0.000
26 C_1872 95.020 62.475 -13.624 C.3 1 NIL_1    0.000
27 C_1830 99.663 60.658 -15.959 C.2 1 NIL_1    0.000
28 C_1876 97.782 61.983 -18.685 C.3 1 NIL_1    0.000
29 C_2206 97.098 71.678 -16.745 C.2 1 NIL_1    0.000
30 C_2210 94.806 71.845 -16.885 C.2 1 NIL_1    0.000
31 AP 95.756 59.869 -14.792 C.3 1 NIL_1    0.000
32 O 95.685 61.051 -16.860 O.2 1 NIL_1    0.000
33 C_1879 94.736 63.870 -13.013 C.3 1 NIL_1    0.000
34 O 99.597 60.231 -17.093 O.2 1 NIL_1    0.000
35 N 100.306 59.912 -15.014 N.am 1 NIL_1    0.000
36 O 98.320 61.870 -20.017 O.3 1 NIL_1    0.000
37 C_2208 95.946 72.124 -16.236 C.2 1 NIL_1    0.000
38 C_1827 94.660 58.857 -15.210 C.3 1 NIL_1    0.000
39 N 97.018 59.109 -15.005 N.am 1 NIL_1    0.000
40 O 93.358 64.247 -13.245 O.3 1 NIL_1    0.000
41 C_1813 101.080 58.704 -15.358 C.3 1 NIL_1    0.000
42 BP 100.616 60.254 -13.608 C.3 1 NIL_1    0.000
43 C_1878 97.545 61.031 -20.898 C.3 1 NIL_1    0.000
44 O 96.006 72.839 -15.064 O.3 1 NIL_1    0.000
45 AQ 95.352 57.911 -16.223 C.3 1 NIL_1    0.000
46 C_1825 96.820 58.363 -16.260 C.3 1 NIL_1    0.000
47 C_1844 97.764 58.546 -14.003 C.2 1 NIL_1    0.000
48 C_1881 92.991 65.549 -12.739 C.3 1 NIL_1    0.000
49 BQ 101.874 58.268 -14.110 C.3 1 NIL_1    0.000
50 C_1833 99.603 60.989 -12.725 C.2 1 NIL_1    0.000
51 C_1815 101.210 59.003 -12.939 C.3 1 NIL_1    0.000
52 C_2271 94.774 73.207 -14.397 C.3 1 NIL_1    0.000
53 C_1846 94.747 57.891 -17.609 C.2 1 NIL_1    0.000
54 NH 95.214 56.501 -15.889 N.am 1 NIL_1    0.000
55 O 98.409 57.534 -14.196 O.2 1 NIL_1    0.000
56 C_1835 97.797 59.144 -12.607 C.3 1 NIL_1    0.000
57 C_1850 101.924 56.768 -13.939 C.2 1 NIL_1    0.000
58 NH 103.304 58.538 -14.204 N.am 1 NIL_1    0.000
59 O 99.951 62.078 -12.306 O.2 1 NIL_1    0.000
60 N 98.355 60.509 -12.405 N.am 1 NIL_1    0.000
61 N 94.430 56.609 -17.911 N.am 1 NIL_1    0.000
62 O 94.595 58.846 -18.345 O.2 1 NIL_1    0.000
63 C_1848 94.703 55.765 -16.890 C.2 1 NIL_1    0.000
64 N 103.221 56.385 -13.934 N.am 1 NIL_1    0.000
65 O 100.969 56.023 -13.835 O.2 1 NIL_1    0.000
66 C_1852 104.062 57.435 -14.078 C.2 1 NIL_1    0.000
67 C_1870 97.512 61.277 -11.460 C.3 1 NIL_1    0.000
68 C_1866 93.941 56.167 -19.228 C.3 1 NIL_1    0.000
69 O 94.529 54.562 -16.866 O.2 1 NIL_1    0.000
70 C_1864 103.664 54.985 -13.832 C.3 1 NIL_1    0.000
71 O 105.276 57.404 -14.097 O.2 1 NIL_1    0.000
72 C_1873 97.888 61.019 -9.988 C.3 1 NIL_1    0.000
73 C_1867 92.698 56.884 -19.713 C.2 1 NIL_1    0.000
74 C_1865 103.863 54.522 -12.403 C.2 1 NIL_1    0.000
75 O 97.102 61.885 -9.138 O.3 1 NIL_1    0.000
76 C_2172 92.715 57.571 -20.859 C.2 1 NIL_1    0.000
77 C_2180 91.565 56.838 -19.004 C.2 1 NIL_1    0.000
78 C_2196 102.827 54.123 -11.657 C.2 1 NIL_1    0.000
79 C_2188 105.088 54.490 -11.873 C.2 1 NIL_1    0.000
80 C_1875 95.942 61.281 -8.522 C.3 1 NIL_1    0.000
81 C_2174 91.620 58.197 -21.291 C.2 1 NIL_1    0.000
82 C_2178 90.469 57.464 -19.435 C.2 1 NIL_1    0.000
83 C_2194 103.014 53.686 -10.409 C.2 1 NIL_1    0.000
84 C_2190 105.279 54.054 -10.627 C.2 1 NIL_1    0.000
85 C_2176 90.487 58.140 -20.586 C.2 1 NIL_1    0.000
86 C_2192 104.245 53.640 -9.891 C.2 1 NIL_1    0.000
87 O 89.360 58.774 -21.021 O.3 1 NIL_1    0.000
88 O 104.459 53.179 -8.625 O.3 1 NIL_1    0.000
89 C_2273 88.832 58.278 -22.274 C.3 1 NIL_1    0.000
90 C_2269 104.373 51.741 -8.495 C.3 1 NIL_1    0.000
91 H_22691 105.066 51.268 -9.198 H 1 NIL_1    0.000
92 H_22692 103.351 51.413 -8.705 H 1 NIL_1    0.000
93 H_22693 104.643 51.457 -7.475 H 1 NIL_1    0.000
94 H_22731 88.485 57.251 -22.137 H 1 NIL_1    0.000
95 H_22732 89.606 58.306 -23.048 H 1 NIL_1    0.000
96 H_22733 87.996 58.912 -22.579 H 1 NIL_1    0.000
97 H_2190 106.285 54.030 -10.215 H 1 NIL_1    0.000
98 H_2194 102.160 53.363 -9.818 H 1 NIL_1    0.000
99 H_2178 89.556 57.415 -18.845 H 1 NIL_1    0.000
100 H_2174 91.659 58.753 -22.225 H 1 NIL_1    0.000
101 H_18751 96.273 60.497 -7.836 H 1 NIL_1    0.000
102 H_18752 95.289 60.856 -9.290 H 1 NIL_1    0.000
103 H_18753 95.399 62.046 -7.961 H 1 NIL_1    0.000
104 H_2188 105.943 54.813 -12.461 H 1 NIL_1    0.000
105 H_2196 101.819 54.144 -12.065 H 1 NIL_1    0.000
106 H_2180 91.533 56.286 -18.068 H 1 NIL_1    0.000
107 H_2172 93.625 57.626 -21.453 H 1 NIL_1    0.000
108 H_18731 97.714 59.973 -9.722 H 1 NIL_1    0.000
109 H_18732 98.944 61.256 -9.833 H 1 NIL_1    0.000
110 H_18641 104.598 54.879 -14.390 H 1 NIL_1    0.000
111 H_18642 102.926 54.342 -14.318 H 1 NIL_1    0.000
112 H_18661 93.727 55.096 -19.187 H 1 NIL_1    0.000
113 H_18662 94.755 56.309 -19.944 H 1 NIL_1    0.000
114 H_18701 96.460 61.018 -11.594 H 1 NIL_1    0.000
115 H_18702 97.616 62.345 -11.677 H 1 NIL_1    0.000
116 H_18351 96.764 59.103 -12.252 H 1 NIL_1    0.000
117 H_18352 98.354 58.450 -11.974 H 1 NIL_1    0.000
118 H_22711 94.175 72.311 -14.213 H 1 NIL_1    0.000
119 H_22712 94.218 73.912 -15.022 H 1 NIL_1    0.000
120 H_22713 95.016 73.682 -13.443 H 1 NIL_1    0.000
121 H_18151 101.918 59.263 -12.147 H 1 NIL_1    0.000
122 H_18152 100.432 58.376 -12.507 H 1 NIL_1    0.000
123 H_18811 93.129 65.563 -11.655 H 1 NIL_1    0.000
124 H_18812 91.942 65.745 -12.977 H 1 NIL_1    0.000
125 H_18813 93.617 66.314 -13.207 H 1 NIL_1    0.000
126 H_18251 97.484 57.501 -16.355 H 1 NIL_1    0.000
127 H_18252 97.018 59.021 -17.109 H 1 NIL_1    0.000
128 H_18781 97.505 60.016 -20.495 H 1 NIL_1    0.000
129 H_18782 98.027 61.018 -21.878 H 1 NIL_1    0.000
130 H_18783 96.532 61.435 -20.988 H 1 NIL_1    0.000
131 HP 101.453 60.957 -13.693 H 1 NIL_1    0.000
132 H_18131 101.760 58.922 -16.186 H 1 NIL_1    0.000
133 H_18132 100.387 57.919 -15.670 H 1 NIL_1    0.000
134 H_18271 94.331 58.297 -14.331 H 1 NIL_1    0.000
135 H_18272 93.782 59.349 -15.638 H 1 NIL_1    0.000
136 H_18791 94.900 63.829 -11.933 H 1 NIL_1    0.000
137 H_18792 95.408 64.620 -13.439 H 1 NIL_1    0.000
138 HP 95.631 60.110 -13.738 H 1 NIL_1    0.000
139 H_2210 93.843 72.186 -16.516 H 1 NIL_1    0.000
140 H_2206 98.036 71.887 -16.235 H 1 NIL_1    0.000
141 H_18761 97.708 60.983 -18.260 H 1 NIL_1    0.000
142 H_18762 96.781 62.405 -18.754 H 1 NIL_1    0.000
143 H_18721 95.986 62.178 -13.232 H 1 NIL_1    0.000
144 H_18722 94.270 61.771 -13.250 H 1 NIL_1    0.000
145 H_2212 93.887 70.909 -18.515 H 1 NIL_1    0.000
146 H_2204 98.060 70.590 -18.253 H 1 NIL_1    0.000
147 H_18711 99.739 62.531 -17.935 H 1 NIL_1    0.000
148 H_18712 98.696 63.877 -18.286 H 1 NIL_1    0.000
149 H_18291 98.330 61.722 -14.750 H 1 NIL_1    0.000
150 H_18292 99.882 62.541 -15.026 H 1 NIL_1    0.000
151 H_18401 94.600 64.368 -15.385 H 1 NIL_1    0.000
152 H_18402 93.413 63.192 -15.911 H 1 NIL_1    0.000
153 H_18681 94.972 69.664 -20.130 H 1 NIL_1    0.000
154 H_18682 96.555 70.338 -20.537 H 1 NIL_1    0.000
155 HP 96.299 65.570 -15.803 H 1 NIL_1    0.000
156 H_18181 97.823 67.045 -16.625 H 1 NIL_1    0.000
157 H_18182 98.781 65.789 -17.404 H 1 NIL_1    0.000
158 H_18161 95.268 65.418 -19.340 H 1 NIL_1    0.000
159 H_18162 96.767 64.466 -19.491 H 1 NIL_1    0.000
160 HH 103.679 59.468 -14.313 H 1 NIL_1    0.000
161 HH 95.513 56.116 -15.005 H 1 NIL_1    0.000
162 HH 98.687 66.206 -19.990 H 1 NIL_1    0.000
@<TRIPOS>BOND
1 1 2 1 
2 3 1 1 
3 4 1 1 
4 5 10 1 
5 5 1 1 
6 5 162 1 
7 6 2 1 
8 7 3 1 
9 7 6 1 
10 7 155 1 
11 8 4 1 
12 9 4 2 
13 10 8 1 
14 11 6 1 
15 12 7 1 
16 13 8 1 
17 13 153 1 
18 13 154 1 
19 14 10 2 
20 15 11 2 
21 16 20 1 
22 16 11 1 
23 16 151 1 
24 16 152 1 
25 17 12 2 
26 18 12 1 
27 19 13 1 
28 20 25 1 
29 21 18 1 
30 21 27 1 
31 21 149 1 
32 21 150 1 
33 22 18 1 
34 22 28 1 
35 22 147 1 
36 22 148 1 
37 23 19 2 
38 23 146 1 
39 24 30 2 
40 24 19 1 
41 24 145 1 
42 25 31 1 
43 26 20 1 
44 26 33 1 
45 26 143 1 
46 26 144 1 
47 27 35 1 
48 28 141 1 
49 28 142 1 
50 29 23 1 
51 29 140 1 
52 30 37 1 
53 30 139 1 
54 31 138 1 
55 32 25 2 
56 33 136 1 
57 33 137 1 
58 34 27 2 
59 36 28 1 
60 37 29 2 
61 38 45 1 
62 38 31 1 
63 38 134 1 
64 38 135 1 
65 39 46 1 
66 39 31 1 
67 39 47 1 
68 40 33 1 
69 41 35 1 
70 41 49 1 
71 41 132 1 
72 41 133 1 
73 42 51 1 
74 42 35 1 
75 42 131 1 
76 43 36 1 
77 43 128 1 
78 43 129 1 
79 43 130 1 
80 44 37 1 
81 45 46 1 
82 46 126 1 
83 46 127 1 
84 48 40 1 
85 48 123 1 
86 48 124 1 
87 48 125 1 
88 50 42 1 
89 50 59 2 
90 51 49 1 
91 52 44 1 
92 52 118 1 
93 52 119 1 
94 52 120 1 
95 53 45 1 
96 54 63 1 
97 54 45 1 
98 54 161 1 
99 55 47 2 
100 56 60 1 
101 56 47 1 
102 56 116 1 
103 56 117 1 
104 57 49 1 
105 58 66 1 
106 58 49 1 
107 58 160 1 
108 60 50 1 
109 61 53 1 
110 62 53 2 
111 63 61 1 
112 64 57 1 
113 65 57 2 
114 66 64 1 
115 67 60 1 
116 67 72 1 
117 67 114 1 
118 67 115 1 
119 68 61 1 
120 68 112 1 
121 68 113 1 
122 69 63 2 
123 70 64 1 
124 70 74 1 
125 71 66 2 
126 73 68 1 
127 73 76 2 
128 73 77 1 
129 74 78 1 
130 75 72 1 
131 77 82 2 
132 79 84 1 
133 79 74 2 
134 79 104 1 
135 80 75 1 
136 81 76 1 
137 82 85 1 
138 83 78 2 
139 84 86 2 
140 84 97 1 
141 85 81 2 
142 86 88 1 
143 86 83 1 
144 87 85 1 
145 89 87 1 
146 89 96 1 
147 90 88 1 
148 91 90 1 
149 92 90 1 
150 93 90 1 
151 94 89 1 
152 95 89 1 
153 98 83 1 
154 99 82 1 
155 100 81 1 
156 101 80 1 
157 102 80 1 
158 103 80 1 
159 105 78 1 
160 106 77 1 
161 107 76 1 
162 108 72 1 
163 109 72 1 
164 110 70 1 
165 111 70 1 
166 121 51 1 
167 122 51 1 
168 156 3 1 
169 157 3 1 
170 158 2 1 
171 159 2 1 
@<TRIPOS>SUBSTRUCTURE
1 NIL_1 1 RESIDUE 1 A NIL 1
