@<TRIPOS>MOLECULE
NIL
162 171 1 0 0
POLYMER
CHARGES


@<TRIPOS>ATOM
1 CQ 93.2606 59.7105 -23.549 C.3 1 NIL_1    0.000
2 C_1816 92.229 59.121 -22.593 C.3 1 NIL_1    0.000
3 C_1818 94.594 59.299 -22.910 C.3 1 NIL_1    0.000
4 C_1854 93.088 61.210 -23.633 C.2 1 NIL_1    0.000
5 NH 93.065 59.369 -24.949 N.am 1 NIL_1    0.000
6 N 92.829 59.239 -21.256 N.am 1 NIL_1    0.000
7 CP 94.303 59.361 -21.387 C.3 1 NIL_1    0.000
8 N 92.781 61.528 -24.911 N.am 1 NIL_1    0.000
9 O 93.187 62.001 -22.714 O.2 1 NIL_1    0.000
10 C_1856 92.769 60.436 -25.713 C.2 1 NIL_1    0.000
11 C_1841 92.135 59.353 -20.094 C.2 1 NIL_1    0.000
12 C_1838 95.070 58.295 -20.601 C.2 1 NIL_1    0.000
13 C_1868 92.471 62.897 -25.360 C.3 1 NIL_1    0.000
14 O 92.532 60.406 -26.904 O.2 1 NIL_1    0.000
15 O 92.691 59.642 -19.053 O.2 1 NIL_1    0.000
16 C_1840 90.638 59.084 -20.130 C.3 1 NIL_1    0.000
17 O 94.476 57.413 -20.012 O.2 1 NIL_1    0.000
18 N 96.434 58.306 -20.591 N.am 1 NIL_1    0.000
19 C_1869 91.341 63.556 -24.586 C.2 1 NIL_1    0.000
20 N 90.257 57.699 -20.523 N.am 1 NIL_1    0.000
21 C_1829 97.197 57.069 -20.289 C.3 1 NIL_1    0.000
22 C_1871 97.283 59.475 -20.904 C.3 1 NIL_1    0.000
23 C_2204 91.563 64.658 -23.862 C.2 1 NIL_1    0.000
24 C_2212 90.104 63.051 -24.618 C.2 1 NIL_1    0.000
25 C_1843 90.621 56.633 -19.746 C.2 1 NIL_1    0.000
26 C_1872 89.261 57.663 -21.622 C.3 1 NIL_1    0.000
27 C_1830 96.812 55.932 -21.223 C.2 1 NIL_1    0.000
28 C_1876 97.673 60.276 -19.647 C.3 1 NIL_1    0.000
29 C_2206 90.576 65.243 -23.184 C.2 1 NIL_1    0.000
30 C_2210 89.113 63.635 -23.943 C.2 1 NIL_1    0.000
31 AP 90.279 55.186 -20.125 C.3 1 NIL_1    0.000
32 O 91.251 56.813 -18.721 O.2 1 NIL_1    0.000
33 C_1879 87.937 58.386 -21.293 C.3 1 NIL_1    0.000
34 O 96.399 56.152 -22.347 O.2 1 NIL_1    0.000
35 N 96.946 54.672 -20.734 N.am 1 NIL_1    0.000
36 O 98.521 59.468 -18.800 O.3 1 NIL_1    0.000
37 C_2208 89.336 64.734 -23.214 C.2 1 NIL_1    0.000
38 C_1827 88.818 54.868 -19.739 C.3 1 NIL_1    0.000
39 N 90.492 54.702 -21.516 N.am 1 NIL_1    0.000
40 O 87.994 59.716 -21.854 O.3 1 NIL_1    0.000
41 C_1813 98.284 54.156 -20.397 C.3 1 NIL_1    0.000
42 BP 96.175 53.511 -21.230 C.3 1 NIL_1    0.000
43 C_1878 98.939 60.103 -17.576 C.3 1 NIL_1    0.000
44 O 88.274 65.281 -22.541 O.3 1 NIL_1    0.000
45 AQ 88.396 53.764 -20.716 C.3 1 NIL_1    0.000
46 C_1825 89.285 53.977 -21.949 C.3 1 NIL_1    0.000
47 C_1844 91.609 54.747 -22.299 C.2 1 NIL_1    0.000
48 C_1881 86.889 60.578 -21.524 C.3 1 NIL_1    0.000
49 BQ 98.462 52.824 -21.168 C.3 1 NIL_1    0.000
50 C_1833 94.855 53.853 -21.938 C.2 1 NIL_1    0.000
51 C_1815 97.193 52.694 -22.034 C.3 1 NIL_1    0.000
52 C_2271 88.530 66.141 -21.403 C.3 1 NIL_1    0.000
53 C_1846 86.921 53.763 -21.045 C.2 1 NIL_1    0.000
54 NH 88.519 52.417 -20.180 N.am 1 NIL_1    0.000
55 O 91.594 54.274 -23.420 O.2 1 NIL_1    0.000
56 C_1835 92.888 55.382 -21.790 C.3 1 NIL_1    0.000
57 C_1850 99.741 52.744 -21.973 C.2 1 NIL_1    0.000
58 NH 98.680 51.689 -20.284 N.am 1 NIL_1    0.000
59 O 94.724 53.700 -23.138 O.2 1 NIL_1    0.000
60 N 93.867 54.439 -21.195 N.am 1 NIL_1    0.000
61 N 86.422 52.536 -20.752 N.am 1 NIL_1    0.000
62 O 86.289 54.701 -21.491 O.2 1 NIL_1    0.000
63 C_1848 87.373 51.717 -20.238 C.2 1 NIL_1    0.000
64 N 100.457 51.674 -21.545 N.am 1 NIL_1    0.000
65 O 100.079 53.514 -22.852 O.2 1 NIL_1    0.000
66 C_1852 99.841 51.047 -20.510 C.2 1 NIL_1    0.000
67 C_1870 93.810 54.367 -19.721 C.3 1 NIL_1    0.000
68 C_1866 85.014 52.140 -20.956 C.3 1 NIL_1    0.000
69 O 87.234 50.562 -19.886 O.2 1 NIL_1    0.000
70 C_1864 101.769 51.313 -22.129 C.3 1 NIL_1    0.000
71 O 100.243 50.093 -19.874 O.2 1 NIL_1    0.000
72 C_1873 93.260 53.005 -19.252 C.3 1 NIL_1    0.000
73 C_1867 84.544 52.378 -22.379 C.2 1 NIL_1    0.000
74 C_1865 102.489 50.033 -21.727 C.2 1 NIL_1    0.000
75 O 93.484 52.836 -17.834 O.3 1 NIL_1    0.000
76 C_2172 85.030 51.645 -23.385 C.2 1 NIL_1    0.000
77 C_2180 83.664 53.346 -22.655 C.2 1 NIL_1    0.000
78 C_2196 102.088 48.839 -22.179 C.2 1 NIL_1    0.000
79 C_2188 103.564 50.083 -20.933 C.2 1 NIL_1    0.000
80 C_1875 94.815 52.411 -17.459 C.3 1 NIL_1    0.000
81 C_2174 84.659 51.884 -24.643 C.2 1 NIL_1    0.000
82 C_2178 83.293 53.587 -23.913 C.2 1 NIL_1    0.000
83 C_2194 102.740 47.723 -21.842 C.2 1 NIL_1    0.000
84 C_2190 104.220 48.972 -20.600 C.2 1 NIL_1    0.000
85 C_2176 83.787 52.862 -24.918 C.2 1 NIL_1    0.000
86 C_2192 103.815 47.780 -21.044 C.2 1 NIL_1    0.000
87 O 83.411 53.176 -26.196 O.3 1 NIL_1    0.000
88 O 104.546 46.678 -20.678 O.3 1 NIL_1    0.000
89 C_2273 83.042 52.083 -27.069 C.3 1 NIL_1    0.000
90 C_2269 103.857 45.419 -20.477 C.3 1 NIL_1    0.000
91 H_22691 104.571 44.697 -20.071 H 1 NIL_1    0.000
92 H_22692 103.472 45.042 -21.428 H 1 NIL_1    0.000
93 H_22693 103.039 45.561 -19.766 H 1 NIL_1    0.000
94 H_22731 82.209 51.532 -26.624 H 1 NIL_1    0.000
95 H_22732 83.892 51.416 -27.229 H 1 NIL_1    0.000
96 H_22733 82.732 52.500 -28.031 H 1 NIL_1    0.000
97 H_2190 105.097 49.041 -19.960 H 1 NIL_1    0.000
98 H_2194 102.390 46.774 -22.240 H 1 NIL_1    0.000
99 H_2178 82.587 54.389 -24.117 H 1 NIL_1    0.000
100 H_2174 85.093 51.285 -25.438 H 1 NIL_1    0.000
101 H_18751 95.541 53.192 -17.698 H 1 NIL_1    0.000
102 H_18752 95.062 51.492 -17.998 H 1 NIL_1    0.000
103 H_18753 94.830 52.215 -16.384 H 1 NIL_1    0.000
104 H_2188 103.920 51.041 -20.560 H 1 NIL_1    0.000
105 H_2196 101.222 48.772 -22.835 H 1 NIL_1    0.000
106 H_2180 83.256 53.958 -21.854 H 1 NIL_1    0.000
107 H_2172 85.750 50.855 -23.181 H 1 NIL_1    0.000
108 H_18731 92.188 52.951 -19.446 H 1 NIL_1    0.000
109 H_18732 93.753 52.188 -19.786 H 1 NIL_1    0.000
110 H_18641 102.436 52.155 -21.923 H 1 NIL_1    0.000
111 H_18642 101.638 51.286 -23.215 H 1 NIL_1    0.000
112 H_18661 84.397 52.712 -20.257 H 1 NIL_1    0.000
113 H_18662 84.895 51.080 -20.714 H 1 NIL_1    0.000
114 H_18701 93.171 55.155 -19.324 H 1 NIL_1    0.000
115 H_18702 94.805 54.529 -19.307 H 1 NIL_1    0.000
116 H_18351 93.358 55.869 -22.649 H 1 NIL_1    0.000
117 H_18352 92.630 56.172 -21.093 H 1 NIL_1    0.000
118 H_22711 88.966 67.086 -21.739 H 1 NIL_1    0.000
119 H_22712 89.211 65.637 -20.712 H 1 NIL_1    0.000
120 H_22713 87.582 66.343 -20.897 H 1 NIL_1    0.000
121 H_18151 96.877 51.656 -22.175 H 1 NIL_1    0.000
122 H_18152 97.354 53.156 -23.012 H 1 NIL_1    0.000
123 H_18811 86.961 61.484 -22.130 H 1 NIL_1    0.000
124 H_18812 86.937 60.842 -20.464 H 1 NIL_1    0.000
125 H_18813 85.949 60.061 -21.737 H 1 NIL_1    0.000
126 H_18251 89.560 53.017 -22.395 H 1 NIL_1    0.000
127 H_18252 88.764 54.580 -22.698 H 1 NIL_1    0.000
128 H_18781 98.068 60.275 -16.938 H 1 NIL_1    0.000
129 H_18782 99.425 61.055 -17.808 H 1 NIL_1    0.000
130 H_18783 99.646 59.446 -17.066 H 1 NIL_1    0.000
131 HP 95.903 52.907 -20.360 H 1 NIL_1    0.000
132 H_18131 98.362 53.997 -19.316 H 1 NIL_1    0.000
133 H_18132 99.042 54.880 -20.708 H 1 NIL_1    0.000
134 H_18271 88.729 54.558 -18.695 H 1 NIL_1    0.000
135 H_18272 88.187 55.747 -19.883 H 1 NIL_1    0.000
136 H_18791 87.099 57.855 -21.754 H 1 NIL_1    0.000
137 H_18792 87.781 58.441 -20.212 H 1 NIL_1    0.000
138 HP 90.912 54.569 -19.487 H 1 NIL_1    0.000
139 H_2210 88.113 63.208 -23.986 H 1 NIL_1    0.000
140 H_2206 90.804 66.138 -22.613 H 1 NIL_1    0.000
141 H_18761 98.225 61.173 -19.943 H 1 NIL_1    0.000
142 H_18762 96.775 60.568 -19.092 H 1 NIL_1    0.000
143 H_18721 88.998 56.638 -21.860 H 1 NIL_1    0.000
144 H_18722 89.700 58.091 -22.526 H 1 NIL_1    0.000
145 H_2212 89.897 62.156 -25.200 H 1 NIL_1    0.000
146 H_2204 92.561 65.089 -23.822 H 1 NIL_1    0.000
147 H_18711 96.764 60.156 -21.577 H 1 NIL_1    0.000
148 H_18712 98.186 59.141 -21.422 H 1 NIL_1    0.000
149 H_18291 96.984 56.756 -19.261 H 1 NIL_1    0.000
150 H_18292 98.274 57.224 -20.395 H 1 NIL_1    0.000
151 H_18401 90.239 59.293 -19.133 H 1 NIL_1    0.000
152 H_18402 90.214 59.818 -20.819 H 1 NIL_1    0.000
153 H_18681 92.201 62.877 -26.419 H 1 NIL_1    0.000
154 H_18682 93.381 63.494 -25.263 H 1 NIL_1    0.000
155 HP 94.599 60.338 -20.993 H 1 NIL_1    0.000
156 H_18181 95.412 59.952 -23.218 H 1 NIL_1    0.000
157 H_18182 94.834 58.275 -23.204 H 1 NIL_1    0.000
158 H_18161 91.288 59.673 -22.665 H 1 NIL_1    0.000
159 H_18162 92.064 58.064 -22.818 H 1 NIL_1    0.000
160 HH 98.043 51.458 -19.536 H 1 NIL_1    0.000
161 HH 89.393 52.043 -19.841 H 1 NIL_1    0.000
162 HH 93.094 58.420 -25.292 H 1 NIL_1    0.000
@<TRIPOS>BOND
1 1 2 1 
2 3 1 1 
3 4 1 1 
4 5 10 1 
5 5 1 1 
6 5 162 1 
7 6 2 1 
8 7 3 1 
9 7 6 1 
10 7 155 1 
11 8 4 1 
12 9 4 2 
13 10 8 1 
14 11 6 1 
15 12 7 1 
16 13 8 1 
17 13 153 1 
18 13 154 1 
19 14 10 2 
20 15 11 2 
21 16 20 1 
22 16 11 1 
23 16 151 1 
24 16 152 1 
25 17 12 2 
26 18 12 1 
27 19 13 1 
28 20 25 1 
29 21 18 1 
30 21 27 1 
31 21 149 1 
32 21 150 1 
33 22 18 1 
34 22 28 1 
35 22 147 1 
36 22 148 1 
37 23 19 2 
38 23 146 1 
39 24 30 2 
40 24 19 1 
41 24 145 1 
42 25 31 1 
43 26 20 1 
44 26 33 1 
45 26 143 1 
46 26 144 1 
47 27 35 1 
48 28 141 1 
49 28 142 1 
50 29 23 1 
51 29 140 1 
52 30 37 1 
53 30 139 1 
54 31 138 1 
55 32 25 2 
56 33 136 1 
57 33 137 1 
58 34 27 2 
59 36 28 1 
60 37 29 2 
61 38 45 1 
62 38 31 1 
63 38 134 1 
64 38 135 1 
65 39 46 1 
66 39 31 1 
67 39 47 1 
68 40 33 1 
69 41 35 1 
70 41 49 1 
71 41 132 1 
72 41 133 1 
73 42 51 1 
74 42 35 1 
75 42 131 1 
76 43 36 1 
77 43 128 1 
78 43 129 1 
79 43 130 1 
80 44 37 1 
81 45 46 1 
82 46 126 1 
83 46 127 1 
84 48 40 1 
85 48 123 1 
86 48 124 1 
87 48 125 1 
88 50 42 1 
89 50 59 2 
90 51 49 1 
91 52 44 1 
92 52 118 1 
93 52 119 1 
94 52 120 1 
95 53 45 1 
96 54 63 1 
97 54 45 1 
98 54 161 1 
99 55 47 2 
100 56 60 1 
101 56 47 1 
102 56 116 1 
103 56 117 1 
104 57 49 1 
105 58 66 1 
106 58 49 1 
107 58 160 1 
108 60 50 1 
109 61 53 1 
110 62 53 2 
111 63 61 1 
112 64 57 1 
113 65 57 2 
114 66 64 1 
115 67 60 1 
116 67 72 1 
117 67 114 1 
118 67 115 1 
119 68 61 1 
120 68 112 1 
121 68 113 1 
122 69 63 2 
123 70 64 1 
124 70 74 1 
125 71 66 2 
126 73 68 1 
127 73 76 2 
128 73 77 1 
129 74 78 1 
130 75 72 1 
131 77 82 2 
132 79 84 1 
133 79 74 2 
134 79 104 1 
135 80 75 1 
136 81 76 1 
137 82 85 1 
138 83 78 2 
139 84 86 2 
140 84 97 1 
141 85 81 2 
142 86 88 1 
143 86 83 1 
144 87 85 1 
145 89 87 1 
146 89 96 1 
147 90 88 1 
148 91 90 1 
149 92 90 1 
150 93 90 1 
151 94 89 1 
152 95 89 1 
153 98 83 1 
154 99 82 1 
155 100 81 1 
156 101 80 1 
157 102 80 1 
158 103 80 1 
159 105 78 1 
160 106 77 1 
161 107 76 1 
162 108 72 1 
163 109 72 1 
164 110 70 1 
165 111 70 1 
166 121 51 1 
167 122 51 1 
168 156 3 1 
169 157 3 1 
170 158 2 1 
171 159 2 1 
@<TRIPOS>SUBSTRUCTURE
1 NIL_1 1 RESIDUE 1 A NIL 1
