@<TRIPOS>MOLECULE
NIL
162 171 1 0 0
POLYMER
CHARGES


@<TRIPOS>ATOM
1 CQ 84.3835 51.2701 -35.4195 C.3 1 NIL_1    0.000
2 C_1816 82.925 50.815 -35.480 C.3 1 NIL_1    0.000
3 C_1818 84.861 50.885 -34.019 C.3 1 NIL_1    0.000
4 C_1854 84.537 52.738 -35.732 C.2 1 NIL_1    0.000
5 NH 85.185 50.711 -36.501 N.am 1 NIL_1    0.000
6 N 82.716 49.784 -34.454 N.am 1 NIL_1    0.000
7 CP 83.859 49.823 -33.500 C.3 1 NIL_1    0.000
8 N 85.266 52.854 -36.866 N.am 1 NIL_1    0.000
9 O 84.068 53.661 -35.093 O.2 1 NIL_1    0.000
10 C_1856 85.655 51.648 -37.344 C.2 1 NIL_1    0.000
11 C_1841 81.526 49.111 -34.395 C.2 1 NIL_1    0.000
12 C_1838 84.583 48.503 -33.202 C.2 1 NIL_1    0.000
13 C_1868 85.452 54.123 -37.591 C.3 1 NIL_1    0.000
14 O 86.294 51.433 -38.355 O.2 1 NIL_1    0.000
15 O 80.655 49.362 -35.207 O.2 1 NIL_1    0.000
16 C_1840 81.225 48.030 -33.367 C.3 1 NIL_1    0.000
17 O 84.408 47.540 -33.923 O.2 1 NIL_1    0.000
18 N 85.452 48.444 -32.135 N.am 1 NIL_1    0.000
19 C_1869 84.355 54.196 -38.634 C.2 1 NIL_1    0.000
20 N 81.630 48.146 -31.947 N.am 1 NIL_1    0.000
21 C_1829 86.345 47.269 -31.909 C.3 1 NIL_1    0.000
22 C_1871 85.736 49.578 -31.210 C.3 1 NIL_1    0.000
23 C_2204 84.616 53.929 -39.918 C.2 1 NIL_1    0.000
24 C_2212 83.096 54.467 -38.278 C.2 1 NIL_1    0.000
25 C_1843 82.010 47.061 -31.225 C.2 1 NIL_1    0.000
26 C_1872 81.394 49.404 -31.192 C.3 1 NIL_1    0.000
27 C_1830 86.163 46.503 -30.597 C.2 1 NIL_1    0.000
28 C_1876 87.075 50.298 -31.466 C.3 1 NIL_1    0.000
29 C_2206 83.636 53.912 -40.822 C.2 1 NIL_1    0.000
30 C_2210 82.114 54.444 -39.179 C.2 1 NIL_1    0.000
31 AP 81.129 45.795 -31.255 C.3 1 NIL_1    0.000
32 O 82.993 47.157 -30.523 O.2 1 NIL_1    0.000
33 C_1879 80.574 50.545 -31.832 C.3 1 NIL_1    0.000
34 O 85.597 46.970 -29.629 O.2 1 NIL_1    0.000
35 N 86.649 45.235 -30.542 N.am 1 NIL_1    0.000
36 O 88.092 49.715 -30.624 O.3 1 NIL_1    0.000
37 C_2208 82.370 54.164 -40.459 C.2 1 NIL_1    0.000
38 C_1827 81.232 45.018 -32.583 C.3 1 NIL_1    0.000
39 N 81.388 44.781 -30.193 N.am 1 NIL_1    0.000
40 O 79.262 50.053 -32.182 O.3 1 NIL_1    0.000
41 C_1813 87.561 44.614 -31.509 C.3 1 NIL_1    0.000
42 BP 86.178 44.219 -29.572 C.3 1 NIL_1    0.000
43 C_1878 89.337 50.441 -30.588 C.3 1 NIL_1    0.000
44 O 81.314 54.098 -41.329 O.3 1 NIL_1    0.000
45 AQ 80.848 43.578 -32.233 C.3 1 NIL_1    0.000
46 C_1825 81.183 43.427 -30.744 C.3 1 NIL_1    0.000
47 C_1844 81.811 45.020 -28.919 C.2 1 NIL_1    0.000
48 C_1881 78.401 51.016 -32.816 C.3 1 NIL_1    0.000
49 BQ 87.984 43.265 -30.908 C.3 1 NIL_1    0.000
50 C_1833 84.652 44.093 -29.598 C.2 1 NIL_1    0.000
51 C_1815 86.856 42.883 -29.939 C.3 1 NIL_1    0.000
52 C_2271 81.491 54.595 -42.677 C.3 1 NIL_1    0.000
53 C_1846 81.542 42.577 -33.120 C.2 1 NIL_1    0.000
54 NH 79.466 43.262 -32.554 N.am 1 NIL_1    0.000
55 O 81.646 46.098 -28.381 O.2 1 NIL_1    0.000
56 C_1835 82.539 43.902 -28.175 C.3 1 NIL_1    0.000
57 C_1850 88.254 42.211 -31.951 C.2 1 NIL_1    0.000
58 NH 89.289 43.303 -30.268 N.am 1 NIL_1    0.000
59 O 84.077 44.336 -30.640 O.2 1 NIL_1    0.000
60 N 83.994 43.686 -28.466 N.am 1 NIL_1    0.000
61 N 80.602 41.926 -33.844 N.am 1 NIL_1    0.000
62 O 82.742 42.380 -33.172 O.2 1 NIL_1    0.000
63 C_1848 79.347 42.302 -33.487 C.2 1 NIL_1    0.000
64 N 89.524 41.769 -31.792 N.am 1 NIL_1    0.000
65 O 87.472 41.830 -32.801 O.2 1 NIL_1    0.000
66 C_1852 90.164 42.431 -30.796 C.2 1 NIL_1    0.000
67 C_1870 84.711 42.887 -27.436 C.3 1 NIL_1    0.000
68 C_1866 80.934 40.910 -34.863 C.3 1 NIL_1    0.000
69 O 78.295 41.861 -33.903 O.2 1 NIL_1    0.000
70 C_1864 90.128 40.746 -32.666 C.3 1 NIL_1    0.000
71 O 91.315 42.287 -30.432 O.2 1 NIL_1    0.000
72 C_1873 83.914 42.346 -26.230 C.3 1 NIL_1    0.000
73 C_1867 80.010 40.810 -36.066 C.2 1 NIL_1    0.000
74 C_1865 91.128 39.794 -32.041 C.2 1 NIL_1    0.000
75 O 84.747 41.388 -25.544 O.3 1 NIL_1    0.000
76 C_2172 79.937 41.798 -36.963 C.2 1 NIL_1    0.000
77 C_2180 79.254 39.723 -36.251 C.2 1 NIL_1    0.000
78 C_2196 90.738 38.893 -31.135 C.2 1 NIL_1    0.000
79 C_2188 92.415 39.827 -32.400 C.2 1 NIL_1    0.000
80 C_1875 84.153 40.792 -24.373 C.3 1 NIL_1    0.000
81 C_2174 79.130 41.700 -38.020 C.2 1 NIL_1    0.000
82 C_2178 78.447 39.621 -37.307 C.2 1 NIL_1    0.000
83 C_2194 91.618 38.047 -30.596 C.2 1 NIL_1    0.000
84 C_2190 93.297 38.983 -31.862 C.2 1 NIL_1    0.000
85 C_2176 78.379 40.611 -38.210 C.2 1 NIL_1    0.000
86 C_2192 92.906 38.082 -30.948 C.2 1 NIL_1    0.000
87 O 77.579 40.576 -39.326 O.3 1 NIL_1    0.000
88 O 93.751 37.178 -30.353 O.3 1 NIL_1    0.000
89 C_2273 76.986 39.321 -39.746 C.3 1 NIL_1    0.000
90 C_2269 95.184 37.355 -30.470 C.3 1 NIL_1    0.000
91 H_22691 95.464 38.339 -30.083 H 1 NIL_1    0.000
92 H_22692 95.485 37.258 -31.516 H 1 NIL_1    0.000
93 H_22693 95.681 36.579 -29.881 H 1 NIL_1    0.000
94 H_22731 77.768 38.566 -39.873 H 1 NIL_1    0.000
95 H_22732 76.472 39.475 -40.700 H 1 NIL_1    0.000
96 H_22733 76.258 38.989 -39.001 H 1 NIL_1    0.000
97 H_2190 94.331 39.046 -32.191 H 1 NIL_1    0.000
98 H_2194 91.277 37.320 -29.862 H 1 NIL_1    0.000
99 H_2178 77.848 38.719 -37.411 H 1 NIL_1    0.000
100 H_2174 79.086 42.519 -38.734 H 1 NIL_1    0.000
101 H_18751 83.188 40.350 -24.641 H 1 NIL_1    0.000
102 H_18752 84.012 41.561 -23.608 H 1 NIL_1    0.000
103 H_18753 84.821 40.014 -23.995 H 1 NIL_1    0.000
104 H_2188 92.754 40.547 -33.141 H 1 NIL_1    0.000
105 H_2196 89.695 38.845 -30.831 H 1 NIL_1    0.000
106 H_2180 79.292 38.907 -35.532 H 1 NIL_1    0.000
107 H_2172 80.543 42.692 -36.833 H 1 NIL_1    0.000
108 H_18731 83.659 43.159 -25.544 H 1 NIL_1    0.000
109 H_18732 83.006 41.835 -26.563 H 1 NIL_1    0.000
110 H_18641 90.598 41.269 -33.503 H 1 NIL_1    0.000
111 H_18642 89.321 40.139 -33.084 H 1 NIL_1    0.000
112 H_18661 80.979 39.941 -34.358 H 1 NIL_1    0.000
113 H_18662 81.945 41.120 -35.230 H 1 NIL_1    0.000
114 H_18701 85.537 43.483 -27.040 H 1 NIL_1    0.000
115 H_18702 85.132 42.019 -27.952 H 1 NIL_1    0.000
116 H_18351 82.439 44.184 -27.124 H 1 NIL_1    0.000
117 H_18352 81.997 42.964 -28.326 H 1 NIL_1    0.000
118 H_22711 80.554 54.455 -43.221 H 1 NIL_1    0.000
119 H_22712 82.281 54.044 -43.191 H 1 NIL_1    0.000
120 H_22713 81.735 55.660 -42.640 H 1 NIL_1    0.000
121 H_18151 87.233 42.364 -29.054 H 1 NIL_1    0.000
122 H_18152 86.141 42.224 -30.439 H 1 NIL_1    0.000
123 H_18811 78.261 51.868 -32.147 H 1 NIL_1    0.000
124 H_18812 77.438 50.542 -33.027 H 1 NIL_1    0.000
125 H_18813 78.857 51.351 -33.752 H 1 NIL_1    0.000
126 H_18251 80.368 42.938 -30.202 H 1 NIL_1    0.000
127 H_18252 82.089 42.830 -30.624 H 1 NIL_1    0.000
128 H_18781 89.747 50.520 -31.598 H 1 NIL_1    0.000
129 H_18782 90.042 49.907 -29.945 H 1 NIL_1    0.000
130 H_18783 89.158 51.440 -30.181 H 1 NIL_1    0.000
131 HP 86.493 44.545 -28.579 H 1 NIL_1    0.000
132 H_18131 88.428 45.257 -31.684 H 1 NIL_1    0.000
133 H_18132 87.022 44.459 -32.447 H 1 NIL_1    0.000
134 H_18271 80.570 45.416 -33.354 H 1 NIL_1    0.000
135 H_18272 82.263 45.054 -32.943 H 1 NIL_1    0.000
136 H_18791 80.461 51.349 -31.100 H 1 NIL_1    0.000
137 H_18792 81.068 50.954 -32.714 H 1 NIL_1    0.000
138 HP 80.097 46.135 -31.134 H 1 NIL_1    0.000
139 H_2210 81.092 54.641 -38.859 H 1 NIL_1    0.000
140 H_2206 83.883 53.662 -41.850 H 1 NIL_1    0.000
141 H_18761 87.382 50.213 -32.511 H 1 NIL_1    0.000
142 H_18762 86.969 51.353 -31.198 H 1 NIL_1    0.000
143 H_18721 82.365 49.797 -30.880 H 1 NIL_1    0.000
144 H_18722 80.869 49.122 -30.274 H 1 NIL_1    0.000
145 H_2212 82.858 54.684 -37.240 H 1 NIL_1    0.000
146 H_2204 85.631 53.698 -40.229 H 1 NIL_1    0.000
147 H_18711 85.726 49.231 -30.178 H 1 NIL_1    0.000
148 H_18712 84.943 50.323 -31.262 H 1 NIL_1    0.000
149 H_18291 87.387 47.593 -31.944 H 1 NIL_1    0.000
150 H_18292 86.209 46.549 -32.719 H 1 NIL_1    0.000
151 H_18401 80.150 47.825 -33.410 H 1 NIL_1    0.000
152 H_18402 81.755 47.173 -33.787 H 1 NIL_1    0.000
153 H_18681 86.442 54.137 -38.056 H 1 NIL_1    0.000
154 H_18682 85.382 54.965 -36.896 H 1 NIL_1    0.000
155 HP 83.457 50.191 -32.562 H 1 NIL_1    0.000
156 H_18181 84.834 51.754 -33.356 H 1 NIL_1    0.000
157 H_18182 85.888 50.516 -34.056 H 1 NIL_1    0.000
158 H_18161 82.257 51.653 -35.256 H 1 NIL_1    0.000
159 H_18162 82.688 50.419 -36.473 H 1 NIL_1    0.000
160 HH 89.502 43.927 -29.503 H 1 NIL_1    0.000
161 HH 78.682 43.726 -32.120 H 1 NIL_1    0.000
162 HH 85.298 49.718 -36.642 H 1 NIL_1    0.000
@<TRIPOS>BOND
1 1 2 1 
2 3 1 1 
3 4 1 1 
4 5 10 1 
5 5 1 1 
6 5 162 1 
7 6 2 1 
8 7 3 1 
9 7 6 1 
10 7 155 1 
11 8 4 1 
12 9 4 2 
13 10 8 1 
14 11 6 1 
15 12 7 1 
16 13 8 1 
17 13 153 1 
18 13 154 1 
19 14 10 2 
20 15 11 2 
21 16 20 1 
22 16 11 1 
23 16 151 1 
24 16 152 1 
25 17 12 2 
26 18 12 1 
27 19 13 1 
28 20 25 1 
29 21 18 1 
30 21 27 1 
31 21 149 1 
32 21 150 1 
33 22 18 1 
34 22 28 1 
35 22 147 1 
36 22 148 1 
37 23 19 2 
38 23 146 1 
39 24 30 2 
40 24 19 1 
41 24 145 1 
42 25 31 1 
43 26 20 1 
44 26 33 1 
45 26 143 1 
46 26 144 1 
47 27 35 1 
48 28 141 1 
49 28 142 1 
50 29 23 1 
51 29 140 1 
52 30 37 1 
53 30 139 1 
54 31 138 1 
55 32 25 2 
56 33 136 1 
57 33 137 1 
58 34 27 2 
59 36 28 1 
60 37 29 2 
61 38 45 1 
62 38 31 1 
63 38 134 1 
64 38 135 1 
65 39 46 1 
66 39 31 1 
67 39 47 1 
68 40 33 1 
69 41 35 1 
70 41 49 1 
71 41 132 1 
72 41 133 1 
73 42 51 1 
74 42 35 1 
75 42 131 1 
76 43 36 1 
77 43 128 1 
78 43 129 1 
79 43 130 1 
80 44 37 1 
81 45 46 1 
82 46 126 1 
83 46 127 1 
84 48 40 1 
85 48 123 1 
86 48 124 1 
87 48 125 1 
88 50 42 1 
89 50 59 2 
90 51 49 1 
91 52 44 1 
92 52 118 1 
93 52 119 1 
94 52 120 1 
95 53 45 1 
96 54 63 1 
97 54 45 1 
98 54 161 1 
99 55 47 2 
100 56 60 1 
101 56 47 1 
102 56 116 1 
103 56 117 1 
104 57 49 1 
105 58 66 1 
106 58 49 1 
107 58 160 1 
108 60 50 1 
109 61 53 1 
110 62 53 2 
111 63 61 1 
112 64 57 1 
113 65 57 2 
114 66 64 1 
115 67 60 1 
116 67 72 1 
117 67 114 1 
118 67 115 1 
119 68 61 1 
120 68 112 1 
121 68 113 1 
122 69 63 2 
123 70 64 1 
124 70 74 1 
125 71 66 2 
126 73 68 1 
127 73 76 2 
128 73 77 1 
129 74 78 1 
130 75 72 1 
131 77 82 2 
132 79 84 1 
133 79 74 2 
134 79 104 1 
135 80 75 1 
136 81 76 1 
137 82 85 1 
138 83 78 2 
139 84 86 2 
140 84 97 1 
141 85 81 2 
142 86 88 1 
143 86 83 1 
144 87 85 1 
145 89 87 1 
146 89 96 1 
147 90 88 1 
148 91 90 1 
149 92 90 1 
150 93 90 1 
151 94 89 1 
152 95 89 1 
153 98 83 1 
154 99 82 1 
155 100 81 1 
156 101 80 1 
157 102 80 1 
158 103 80 1 
159 105 78 1 
160 106 77 1 
161 107 76 1 
162 108 72 1 
163 109 72 1 
164 110 70 1 
165 111 70 1 
166 121 51 1 
167 122 51 1 
168 156 3 1 
169 157 3 1 
170 158 2 1 
171 159 2 1 
@<TRIPOS>SUBSTRUCTURE
1 NIL_1 1 RESIDUE 1 A NIL 1
