@<TRIPOS>MOLECULE
NIL
162 171 1 0 0
POLYMER
CHARGES


@<TRIPOS>ATOM
1 CQ 102.073 69.4586 -13.7895 C.3 1 NIL_1    0.000
2 C_1816 101.784 68.024 -14.249 C.3 1 NIL_1    0.000
3 C_1818 102.043 69.378 -12.260 C.3 1 NIL_1    0.000
4 C_1854 101.066 70.452 -14.323 C.2 1 NIL_1    0.000
5 NH 103.288 70.030 -14.354 N.am 1 NIL_1    0.000
6 N 101.032 67.356 -13.174 N.am 1 NIL_1    0.000
7 CP 101.123 68.174 -11.939 C.3 1 NIL_1    0.000
8 N 101.735 71.378 -15.048 N.am 1 NIL_1    0.000
9 O 99.864 70.436 -14.132 O.2 1 NIL_1    0.000
10 C_1856 103.066 71.136 -15.083 C.2 1 NIL_1    0.000
11 C_1841 100.373 66.173 -13.348 C.2 1 NIL_1    0.000
12 C_1838 101.708 67.427 -10.744 C.2 1 NIL_1    0.000
13 C_1868 101.094 72.505 -15.738 C.3 1 NIL_1    0.000
14 O 103.914 71.786 -15.662 O.2 1 NIL_1    0.000
15 O 100.364 65.622 -14.433 O.2 1 NIL_1    0.000
16 C_1840 99.666 65.560 -12.145 C.3 1 NIL_1    0.000
17 O 102.628 66.649 -10.913 O.2 1 NIL_1    0.000
18 N 101.245 67.688 -9.486 N.am 1 NIL_1    0.000
19 C_1869 100.759 73.660 -14.816 C.2 1 NIL_1    0.000
20 N 98.801 64.392 -12.452 N.am 1 NIL_1    0.000
21 C_1829 101.925 67.139 -8.298 C.3 1 NIL_1    0.000
22 C_1871 100.032 68.451 -9.124 C.3 1 NIL_1    0.000
23 C_2204 99.488 74.034 -14.652 C.2 1 NIL_1    0.000
24 C_2212 101.719 74.342 -14.179 C.2 1 NIL_1    0.000
25 C_1843 99.296 63.118 -12.434 C.2 1 NIL_1    0.000
26 C_1872 97.384 64.764 -12.647 C.3 1 NIL_1    0.000
27 C_1830 101.490 65.715 -7.999 C.2 1 NIL_1    0.000
28 C_1876 100.322 69.924 -8.768 C.3 1 NIL_1    0.000
29 C_2206 99.178 75.072 -13.876 C.2 1 NIL_1    0.000
30 C_2210 101.411 75.382 -13.401 C.2 1 NIL_1    0.000
31 AP 98.340 61.926 -12.284 C.3 1 NIL_1    0.000
32 O 100.494 62.928 -12.520 O.2 1 NIL_1    0.000
33 C_1879 97.015 64.920 -14.139 C.3 1 NIL_1    0.000
34 O 100.307 65.433 -7.966 O.2 1 NIL_1    0.000
35 N 102.447 64.776 -7.763 N.am 1 NIL_1    0.000
36 O 100.013 70.789 -9.883 O.3 1 NIL_1    0.000
37 C_2208 100.139 75.755 -13.242 C.2 1 NIL_1    0.000
38 C_1827 97.776 61.477 -13.649 C.3 1 NIL_1    0.000
39 N 98.991 60.740 -11.674 N.am 1 NIL_1    0.000
40 O 95.644 65.357 -14.259 O.3 1 NIL_1    0.000
41 C_1813 103.900 64.990 -7.732 C.3 1 NIL_1    0.000
42 BP 102.148 63.353 -7.516 C.3 1 NIL_1    0.000
43 C_1878 98.618 71.128 -10.053 C.3 1 NIL_1    0.000
44 O 99.858 76.845 -12.469 O.3 1 NIL_1    0.000
45 AQ 97.805 59.943 -13.591 C.3 1 NIL_1    0.000
46 C_1825 98.965 59.628 -12.635 C.3 1 NIL_1    0.000
47 C_1844 99.535 60.652 -10.426 C.2 1 NIL_1    0.000
48 C_1881 95.436 66.780 -14.137 C.3 1 NIL_1    0.000
49 BQ 104.572 63.612 -7.749 C.3 1 NIL_1    0.000
50 C_1833 101.344 62.766 -8.673 C.2 1 NIL_1    0.000
51 C_1815 103.488 62.621 -7.291 C.3 1 NIL_1    0.000
52 C_2271 98.918 76.643 -11.387 C.3 1 NIL_1    0.000
53 C_1846 97.911 59.270 -14.939 C.2 1 NIL_1    0.000
54 NH 96.538 59.378 -13.146 N.am 1 NIL_1    0.000
55 O 100.193 59.683 -10.097 O.2 1 NIL_1    0.000
56 C_1835 99.222 61.768 -9.439 C.3 1 NIL_1    0.000
57 C_1850 105.128 63.287 -9.121 C.2 1 NIL_1    0.000
58 NH 105.808 63.581 -6.984 N.am 1 NIL_1    0.000
59 O 101.637 63.041 -9.820 O.2 1 NIL_1    0.000
60 N 100.257 61.987 -8.407 N.am 1 NIL_1    0.000
61 N 96.822 58.482 -15.105 N.am 1 NIL_1    0.000
62 O 98.815 59.406 -15.742 O.2 1 NIL_1    0.000
63 C_1848 95.982 58.549 -14.044 C.2 1 NIL_1    0.000
64 N 106.470 63.171 -9.011 N.am 1 NIL_1    0.000
65 O 104.494 63.154 -10.150 O.2 1 NIL_1    0.000
66 C_1852 106.896 63.365 -7.741 C.2 1 NIL_1    0.000
67 C_1870 99.896 61.432 -7.089 C.3 1 NIL_1    0.000
68 C_1866 96.601 57.603 -16.265 C.3 1 NIL_1    0.000
69 O 94.920 57.974 -13.912 O.2 1 NIL_1    0.000
70 C_1864 107.366 62.860 -10.138 C.3 1 NIL_1    0.000
71 O 108.042 63.356 -7.339 O.2 1 NIL_1    0.000
72 C_1873 98.916 62.327 -6.305 C.3 1 NIL_1    0.000
73 C_1867 95.910 58.268 -17.440 C.2 1 NIL_1    0.000
74 C_1865 107.603 61.367 -10.248 C.2 1 NIL_1    0.000
75 O 98.776 61.780 -4.976 O.3 1 NIL_1    0.000
76 C_2172 94.627 58.637 -17.359 C.2 1 NIL_1    0.000
77 C_2180 96.565 58.466 -18.589 C.2 1 NIL_1    0.000
78 C_2196 106.872 60.613 -11.076 C.2 1 NIL_1    0.000
79 C_2188 108.555 60.782 -9.516 C.2 1 NIL_1    0.000
80 C_1875 97.890 62.505 -4.098 C.3 1 NIL_1    0.000
81 C_2174 94.008 59.187 -18.406 C.2 1 NIL_1    0.000
82 C_2178 95.948 59.012 -19.638 C.2 1 NIL_1    0.000
83 C_2194 107.092 59.299 -11.167 C.2 1 NIL_1    0.000
84 C_2190 108.774 59.470 -9.602 C.2 1 NIL_1    0.000
85 C_2176 94.666 59.375 -19.552 C.2 1 NIL_1    0.000
86 C_2192 108.038 58.717 -10.428 C.2 1 NIL_1    0.000
87 O 94.026 59.917 -20.626 O.3 1 NIL_1    0.000
88 O 108.232 57.370 -10.555 O.3 1 NIL_1    0.000
89 C_2273 94.164 61.351 -20.730 C.3 1 NIL_1    0.000
90 C_2269 108.292 56.610 -9.325 C.3 1 NIL_1    0.000
91 H_22691 109.201 56.860 -8.773 H 1 NIL_1    0.000
92 H_22692 108.303 55.546 -9.573 H 1 NIL_1    0.000
93 H_22693 107.409 56.834 -8.719 H 1 NIL_1    0.000
94 H_22731 93.626 61.697 -21.616 H 1 NIL_1    0.000
95 H_22732 95.223 61.608 -20.821 H 1 NIL_1    0.000
96 H_22733 93.741 61.823 -19.838 H 1 NIL_1    0.000
97 H_2190 109.561 59.027 -8.998 H 1 NIL_1    0.000
98 H_2194 106.491 58.701 -11.848 H 1 NIL_1    0.000
99 H_2178 96.494 59.154 -20.569 H 1 NIL_1    0.000
100 H_2174 92.962 59.475 -18.325 H 1 NIL_1    0.000
101 H_18751 96.885 62.528 -4.531 H 1 NIL_1    0.000
102 H_18752 98.262 63.525 -3.967 H 1 NIL_1    0.000
103 H_18753 97.861 61.999 -3.130 H 1 NIL_1    0.000
104 H_2188 109.165 61.378 -8.841 H 1 NIL_1    0.000
105 H_2196 106.092 61.066 -11.684 H 1 NIL_1    0.000
106 H_2180 97.608 58.172 -18.679 H 1 NIL_1    0.000
107 H_2172 94.071 58.483 -16.437 H 1 NIL_1    0.000
108 H_18731 99.305 63.348 -6.236 H 1 NIL_1    0.000
109 H_18732 97.939 62.337 -6.797 H 1 NIL_1    0.000
110 H_18641 108.319 63.373 -9.984 H 1 NIL_1    0.000
111 H_18642 106.932 63.244 -11.065 H 1 NIL_1    0.000
112 H_18661 96.002 56.747 -15.941 H 1 NIL_1    0.000
113 H_18662 97.570 57.206 -16.583 H 1 NIL_1    0.000
114 H_18701 100.802 61.277 -6.499 H 1 NIL_1    0.000
115 H_18702 99.436 60.451 -7.239 H 1 NIL_1    0.000
116 H_18351 99.081 62.708 -9.972 H 1 NIL_1    0.000
117 H_18352 98.267 61.511 -8.971 H 1 NIL_1    0.000
118 H_22711 97.943 76.341 -11.780 H 1 NIL_1    0.000
119 H_22712 98.810 77.587 -10.845 H 1 NIL_1    0.000
120 H_22713 99.305 75.875 -10.711 H 1 NIL_1    0.000
121 H_18151 103.601 62.414 -6.223 H 1 NIL_1    0.000
122 H_18152 103.539 61.670 -7.827 H 1 NIL_1    0.000
123 H_18811 94.366 66.988 -14.197 H 1 NIL_1    0.000
124 H_18812 95.956 67.285 -14.956 H 1 NIL_1    0.000
125 H_18813 95.825 67.135 -13.179 H 1 NIL_1    0.000
126 H_18251 98.813 58.673 -12.126 H 1 NIL_1    0.000
127 H_18252 99.916 59.608 -13.173 H 1 NIL_1    0.000
128 H_18781 98.027 70.216 -10.171 H 1 NIL_1    0.000
129 H_18782 98.512 71.745 -10.950 H 1 NIL_1    0.000
130 H_18783 98.274 71.682 -9.174 H 1 NIL_1    0.000
131 HP 101.556 63.303 -6.601 H 1 NIL_1    0.000
132 H_18131 104.147 65.515 -6.805 H 1 NIL_1    0.000
133 H_18132 104.236 65.579 -8.588 H 1 NIL_1    0.000
134 H_18271 96.763 61.857 -13.809 H 1 NIL_1    0.000
135 H_18272 98.415 61.831 -14.462 H 1 NIL_1    0.000
136 H_18791 97.669 65.643 -14.634 H 1 NIL_1    0.000
137 H_18792 97.108 63.960 -14.649 H 1 NIL_1    0.000
138 HP 97.516 62.213 -11.628 H 1 NIL_1    0.000
139 H_2210 102.204 75.934 -12.899 H 1 NIL_1    0.000
140 H_2206 98.136 75.365 -13.780 H 1 NIL_1    0.000
141 H_18761 99.719 70.222 -7.905 H 1 NIL_1    0.000
142 H_18762 101.378 70.050 -8.515 H 1 NIL_1    0.000
143 H_18721 97.185 65.712 -12.139 H 1 NIL_1    0.000
144 H_18722 96.729 64.021 -12.192 H 1 NIL_1    0.000
145 H_2212 102.763 74.061 -14.299 H 1 NIL_1    0.000
146 H_2204 98.693 73.498 -15.168 H 1 NIL_1    0.000
147 H_18711 99.591 67.983 -8.240 H 1 NIL_1    0.000
148 H_18712 99.277 68.375 -9.907 H 1 NIL_1    0.000
149 H_18291 101.686 67.733 -7.412 H 1 NIL_1    0.000
150 H_18292 103.002 67.202 -8.454 H 1 NIL_1    0.000
151 H_18401 100.437 65.239 -11.440 H 1 NIL_1    0.000
152 H_18402 99.083 66.347 -11.659 H 1 NIL_1    0.000
153 H_18681 100.184 72.136 -16.220 H 1 NIL_1    0.000
154 H_18682 101.756 72.867 -16.528 H 1 NIL_1    0.000
155 HP 100.118 68.533 -11.719 H 1 NIL_1    0.000
156 H_18181 101.694 70.307 -11.806 H 1 NIL_1    0.000
157 H_18182 103.057 69.190 -11.896 H 1 NIL_1    0.000
158 H_18161 101.224 68.017 -15.188 H 1 NIL_1    0.000
159 H_18162 102.726 67.484 -14.383 H 1 NIL_1    0.000
160 HH 105.844 63.807 -6.001 H 1 NIL_1    0.000
161 HH 96.119 59.612 -12.259 H 1 NIL_1    0.000
162 HH 104.196 69.609 -14.236 H 1 NIL_1    0.000
@<TRIPOS>BOND
1 1 2 1 
2 3 1 1 
3 4 1 1 
4 5 10 1 
5 5 1 1 
6 5 162 1 
7 6 2 1 
8 7 3 1 
9 7 6 1 
10 7 155 1 
11 8 4 1 
12 9 4 2 
13 10 8 1 
14 11 6 1 
15 12 7 1 
16 13 8 1 
17 13 153 1 
18 13 154 1 
19 14 10 2 
20 15 11 2 
21 16 20 1 
22 16 11 1 
23 16 151 1 
24 16 152 1 
25 17 12 2 
26 18 12 1 
27 19 13 1 
28 20 25 1 
29 21 18 1 
30 21 27 1 
31 21 149 1 
32 21 150 1 
33 22 18 1 
34 22 28 1 
35 22 147 1 
36 22 148 1 
37 23 19 2 
38 23 146 1 
39 24 30 2 
40 24 19 1 
41 24 145 1 
42 25 31 1 
43 26 20 1 
44 26 33 1 
45 26 143 1 
46 26 144 1 
47 27 35 1 
48 28 141 1 
49 28 142 1 
50 29 23 1 
51 29 140 1 
52 30 37 1 
53 30 139 1 
54 31 138 1 
55 32 25 2 
56 33 136 1 
57 33 137 1 
58 34 27 2 
59 36 28 1 
60 37 29 2 
61 38 45 1 
62 38 31 1 
63 38 134 1 
64 38 135 1 
65 39 46 1 
66 39 31 1 
67 39 47 1 
68 40 33 1 
69 41 35 1 
70 41 49 1 
71 41 132 1 
72 41 133 1 
73 42 51 1 
74 42 35 1 
75 42 131 1 
76 43 36 1 
77 43 128 1 
78 43 129 1 
79 43 130 1 
80 44 37 1 
81 45 46 1 
82 46 126 1 
83 46 127 1 
84 48 40 1 
85 48 123 1 
86 48 124 1 
87 48 125 1 
88 50 42 1 
89 50 59 2 
90 51 49 1 
91 52 44 1 
92 52 118 1 
93 52 119 1 
94 52 120 1 
95 53 45 1 
96 54 63 1 
97 54 45 1 
98 54 161 1 
99 55 47 2 
100 56 60 1 
101 56 47 1 
102 56 116 1 
103 56 117 1 
104 57 49 1 
105 58 66 1 
106 58 49 1 
107 58 160 1 
108 60 50 1 
109 61 53 1 
110 62 53 2 
111 63 61 1 
112 64 57 1 
113 65 57 2 
114 66 64 1 
115 67 60 1 
116 67 72 1 
117 67 114 1 
118 67 115 1 
119 68 61 1 
120 68 112 1 
121 68 113 1 
122 69 63 2 
123 70 64 1 
124 70 74 1 
125 71 66 2 
126 73 68 1 
127 73 76 2 
128 73 77 1 
129 74 78 1 
130 75 72 1 
131 77 82 2 
132 79 84 1 
133 79 74 2 
134 79 104 1 
135 80 75 1 
136 81 76 1 
137 82 85 1 
138 83 78 2 
139 84 86 2 
140 84 97 1 
141 85 81 2 
142 86 88 1 
143 86 83 1 
144 87 85 1 
145 89 87 1 
146 89 96 1 
147 90 88 1 
148 91 90 1 
149 92 90 1 
150 93 90 1 
151 94 89 1 
152 95 89 1 
153 98 83 1 
154 99 82 1 
155 100 81 1 
156 101 80 1 
157 102 80 1 
158 103 80 1 
159 105 78 1 
160 106 77 1 
161 107 76 1 
162 108 72 1 
163 109 72 1 
164 110 70 1 
165 111 70 1 
166 121 51 1 
167 122 51 1 
168 156 3 1 
169 157 3 1 
170 158 2 1 
171 159 2 1 
@<TRIPOS>SUBSTRUCTURE
1 NIL_1 1 RESIDUE 1 A NIL 1
