@<TRIPOS>MOLECULE
NIL
162 171 1 0 0
POLYMER
CHARGES


@<TRIPOS>ATOM
1 CQ 110.418 80.6052 -2.16274 C.3 1 NIL_1    0.000
2 C_1816 110.097 79.179 -2.639 C.3 1 NIL_1    0.000
3 C_1818 109.832 80.636 -0.750 C.3 1 NIL_1    0.000
4 C_1854 109.899 81.653 -3.121 C.2 1 NIL_1    0.000
5 NH 111.833 80.935 -2.202 N.am 1 NIL_1    0.000
6 N 109.949 78.330 -1.442 N.am 1 NIL_1    0.000
7 CP 110.039 79.190 -0.238 C.3 1 NIL_1    0.000
8 N 110.965 82.303 -3.645 N.am 1 NIL_1    0.000
9 O 108.735 81.865 -3.401 O.2 1 NIL_1    0.000
10 C_1856 112.131 81.887 -3.099 C.2 1 NIL_1    0.000
11 C_1841 109.546 77.029 -1.532 C.2 1 NIL_1    0.000
12 C_1838 111.290 79.147 0.670 C.2 1 NIL_1    0.000
13 C_1868 110.888 83.276 -4.745 C.3 1 NIL_1    0.000
14 O 113.248 82.287 -3.361 O.2 1 NIL_1    0.000
15 O 109.747 76.414 -2.559 O.2 1 NIL_1    0.000
16 C_1840 108.767 76.378 -0.390 C.3 1 NIL_1    0.000
17 O 111.175 79.730 1.732 O.2 1 NIL_1    0.000
18 N 112.492 78.528 0.391 N.am 1 NIL_1    0.000
19 C_1869 110.888 84.716 -4.276 C.2 1 NIL_1    0.000
20 N 109.361 75.122 0.142 N.am 1 NIL_1    0.000
21 C_1829 113.613 78.661 1.375 C.3 1 NIL_1    0.000
22 C_1871 112.781 77.542 -0.679 C.3 1 NIL_1    0.000
23 C_2204 112.028 85.411 -4.225 C.2 1 NIL_1    0.000
24 C_2212 109.747 85.323 -3.935 C.2 1 NIL_1    0.000
25 C_1843 108.948 73.929 -0.362 C.2 1 NIL_1    0.000
26 C_1872 109.447 75.158 1.622 C.3 1 NIL_1    0.000
27 C_1830 115.036 78.487 0.874 C.2 1 NIL_1    0.000
28 C_1876 113.418 78.088 -1.964 C.3 1 NIL_1    0.000
29 C_2206 112.032 86.686 -3.832 C.2 1 NIL_1    0.000
30 C_2210 109.747 86.598 -3.543 C.2 1 NIL_1    0.000
31 AP 110.014 72.897 -0.762 C.3 1 NIL_1    0.000
32 O 107.758 73.702 -0.481 O.2 1 NIL_1    0.000
33 C_1879 110.111 76.403 2.239 C.3 1 NIL_1    0.000
34 O 115.531 79.471 0.355 O.2 1 NIL_1    0.000
35 N 115.786 77.340 1.028 N.am 1 NIL_1    0.000
36 O 113.779 76.952 -2.770 O.3 1 NIL_1    0.000
37 C_2208 110.893 87.286 -3.478 C.2 1 NIL_1    0.000
38 C_1827 109.471 71.875 -1.788 C.3 1 NIL_1    0.000
39 N 111.210 73.481 -1.415 N.am 1 NIL_1    0.000
40 O 110.553 76.079 3.575 O.3 1 NIL_1    0.000
41 C_1813 117.213 77.370 0.640 C.3 1 NIL_1    0.000
42 BP 115.507 75.873 1.267 C.3 1 NIL_1    0.000
43 C_1878 114.305 77.274 -4.068 C.3 1 NIL_1    0.000
44 O 110.918 88.593 -3.083 O.3 1 NIL_1    0.000
45 AQ 109.805 72.493 -3.154 C.3 1 NIL_1    0.000
46 C_1825 111.047 73.364 -2.879 C.3 1 NIL_1    0.000
47 C_1844 112.410 73.784 -0.844 C.2 1 NIL_1    0.000
48 C_1881 111.184 77.157 4.298 C.3 1 NIL_1    0.000
49 BQ 117.525 76.047 -0.064 C.3 1 NIL_1    0.000
50 C_1833 114.105 75.261 1.461 C.2 1 NIL_1    0.000
51 C_1815 116.247 75.217 0.079 C.3 1 NIL_1    0.000
52 C_2271 110.439 88.853 -1.739 C.3 1 NIL_1    0.000
53 C_1846 108.661 73.281 -3.757 C.2 1 NIL_1    0.000
54 NH 109.980 71.507 -4.211 N.am 1 NIL_1    0.000
55 O 113.306 74.255 -1.518 O.2 1 NIL_1    0.000
56 C_1835 112.617 73.459 0.631 C.3 1 NIL_1    0.000
57 C_1850 117.945 76.235 -1.502 C.2 1 NIL_1    0.000
58 NH 118.718 75.396 0.453 N.am 1 NIL_1    0.000
59 O 113.163 75.880 1.888 O.2 1 NIL_1    0.000
60 N 113.907 73.943 1.184 N.am 1 NIL_1    0.000
61 N 108.340 72.723 -4.945 N.am 1 NIL_1    0.000
62 O 108.112 74.254 -3.282 O.2 1 NIL_1    0.000
63 C_1848 109.115 71.651 -5.228 C.2 1 NIL_1    0.000
64 N 119.191 75.724 -1.643 N.am 1 NIL_1    0.000
65 O 117.285 76.754 -2.382 O.2 1 NIL_1    0.000
66 C_1852 119.668 75.221 -0.480 C.2 1 NIL_1    0.000
67 C_1870 114.755 72.872 1.747 C.3 1 NIL_1    0.000
68 C_1866 107.296 73.244 -5.841 C.3 1 NIL_1    0.000
69 O 109.053 70.943 -6.213 O.2 1 NIL_1    0.000
70 C_1864 119.924 75.662 -2.917 C.3 1 NIL_1    0.000
71 O 120.750 74.699 -0.300 O.2 1 NIL_1    0.000
72 C_1873 114.137 72.172 2.977 C.3 1 NIL_1    0.000
73 C_1867 105.918 72.700 -5.520 C.2 1 NIL_1    0.000
74 C_1865 119.930 74.244 -3.451 C.2 1 NIL_1    0.000
75 O 113.894 73.153 4.013 O.3 1 NIL_1    0.000
76 C_2172 105.187 73.219 -4.530 C.2 1 NIL_1    0.000
77 C_2180 105.408 71.692 -6.233 C.2 1 NIL_1    0.000
78 C_2196 121.068 73.547 -3.530 C.2 1 NIL_1    0.000
79 C_2188 118.789 73.665 -3.840 C.2 1 NIL_1    0.000
80 C_1875 113.394 72.617 5.258 C.3 1 NIL_1    0.000
81 C_2174 103.975 72.735 -4.254 C.2 1 NIL_1    0.000
82 C_2178 104.196 71.207 -5.960 C.2 1 NIL_1    0.000
83 C_2194 121.066 72.293 -3.984 C.2 1 NIL_1    0.000
84 C_2190 118.784 72.410 -4.293 C.2 1 NIL_1    0.000
85 C_2176 103.466 71.722 -4.960 C.2 1 NIL_1    0.000
86 C_2192 119.923 71.717 -4.364 C.2 1 NIL_1    0.000
87 O 102.215 71.274 -4.612 O.3 1 NIL_1    0.000
88 O 119.923 70.436 -4.827 O.3 1 NIL_1    0.000
89 C_2273 101.626 70.166 -5.336 C.3 1 NIL_1    0.000
90 C_2269 119.598 69.451 -3.820 C.3 1 NIL_1    0.000
91 H_22691 118.603 69.652 -3.415 H 1 NIL_1    0.000
92 H_22692 120.341 69.491 -3.019 H 1 NIL_1    0.000
93 H_22693 119.611 68.460 -4.281 H 1 NIL_1    0.000
94 H_22731 102.255 69.278 -5.226 H 1 NIL_1    0.000
95 H_22732 101.527 70.432 -6.392 H 1 NIL_1    0.000
96 H_22733 100.637 69.963 -4.919 H 1 NIL_1    0.000
97 H_2190 117.846 71.954 -4.602 H 1 NIL_1    0.000
98 H_2194 122.000 71.738 -4.040 H 1 NIL_1    0.000
99 H_2178 103.826 70.387 -6.571 H 1 NIL_1    0.000
100 H_2174 103.399 73.175 -3.442 H 1 NIL_1    0.000
101 H_18751 113.300 73.431 5.983 H 1 NIL_1    0.000
102 H_18752 114.095 71.871 5.641 H 1 NIL_1    0.000
103 H_18753 112.416 72.159 5.096 H 1 NIL_1    0.000
104 H_2188 117.852 74.215 -3.785 H 1 NIL_1    0.000
105 H_2196 122.008 73.998 -3.219 H 1 NIL_1    0.000
106 H_2180 105.980 71.257 -7.049 H 1 NIL_1    0.000
107 H_2172 105.574 74.045 -3.940 H 1 NIL_1    0.000
108 H_18731 113.194 71.684 2.716 H 1 NIL_1    0.000
109 H_18732 114.838 71.423 3.357 H 1 NIL_1    0.000
110 H_18641 120.946 76.012 -2.749 H 1 NIL_1    0.000
111 H_18642 119.455 76.327 -3.646 H 1 NIL_1    0.000
112 H_18661 107.560 72.985 -6.869 H 1 NIL_1    0.000
113 H_18662 107.282 74.336 -5.773 H 1 NIL_1    0.000
114 H_18701 115.712 73.290 2.063 H 1 NIL_1    0.000
115 H_18702 114.949 72.130 0.970 H 1 NIL_1    0.000
116 H_18351 111.801 73.909 1.188 H 1 NIL_1    0.000
117 H_18352 112.543 72.372 0.722 H 1 NIL_1    0.000
118 H_22711 109.392 88.553 -1.645 H 1 NIL_1    0.000
119 H_22712 110.523 89.924 -1.541 H 1 NIL_1    0.000
120 H_22713 111.049 88.299 -1.020 H 1 NIL_1    0.000
121 H_18151 116.483 74.162 0.224 H 1 NIL_1    0.000
122 H_18152 115.635 75.308 -0.822 H 1 NIL_1    0.000
123 H_18811 110.510 78.017 4.341 H 1 NIL_1    0.000
124 H_18812 112.112 77.441 3.800 H 1 NIL_1    0.000
125 H_18813 111.408 76.815 5.311 H 1 NIL_1    0.000
126 H_18251 111.932 72.874 -3.295 H 1 NIL_1    0.000
127 H_18252 110.949 74.350 -3.333 H 1 NIL_1    0.000
128 H_18781 115.186 77.911 -3.953 H 1 NIL_1    0.000
129 H_18782 113.539 77.793 -4.650 H 1 NIL_1    0.000
130 H_18783 114.580 76.344 -4.572 H 1 NIL_1    0.000
131 HP 116.043 75.603 2.182 H 1 NIL_1    0.000
132 H_18131 117.819 77.475 1.545 H 1 NIL_1    0.000
133 H_18132 117.446 78.199 -0.033 H 1 NIL_1    0.000
134 H_18271 110.028 70.941 -1.674 H 1 NIL_1    0.000
135 H_18272 108.410 71.639 -1.677 H 1 NIL_1    0.000
136 H_18791 110.965 76.701 1.636 H 1 NIL_1    0.000
137 H_18792 109.402 77.233 2.297 H 1 NIL_1    0.000
138 HP 110.298 72.369 0.152 H 1 NIL_1    0.000
139 H_2210 108.806 87.076 -3.283 H 1 NIL_1    0.000
140 H_2206 112.969 87.235 -3.802 H 1 NIL_1    0.000
141 H_18761 112.716 78.693 -2.522 H 1 NIL_1    0.000
142 H_18762 114.314 78.672 -1.747 H 1 NIL_1    0.000
143 H_18721 109.983 74.270 1.959 H 1 NIL_1    0.000
144 H_18722 108.433 75.083 2.025 H 1 NIL_1    0.000
145 H_2212 108.806 84.782 -3.985 H 1 NIL_1    0.000
146 H_2204 112.964 84.939 -4.510 H 1 NIL_1    0.000
147 H_18711 111.902 76.952 -0.908 H 1 NIL_1    0.000
148 H_18712 113.498 76.820 -0.312 H 1 NIL_1    0.000
149 H_18291 113.466 78.057 2.265 H 1 NIL_1    0.000
150 H_18292 113.601 79.695 1.735 H 1 NIL_1    0.000
151 H_18401 108.586 77.103 0.398 H 1 NIL_1    0.000
152 H_18402 107.780 76.156 -0.803 H 1 NIL_1    0.000
153 H_18681 109.985 83.080 -5.330 H 1 NIL_1    0.000
154 H_18682 111.744 83.109 -5.406 H 1 NIL_1    0.000
155 HP 109.200 78.976 0.426 H 1 NIL_1    0.000
156 H_18181 108.761 80.850 -0.804 H 1 NIL_1    0.000
157 H_18182 110.297 81.397 -0.117 H 1 NIL_1    0.000
158 H_18161 109.139 79.184 -3.167 H 1 NIL_1    0.000
159 H_18162 110.860 78.794 -3.319 H 1 NIL_1    0.000
160 HH 118.818 75.127 1.420 H 1 NIL_1    0.000
161 HH 110.678 70.781 -4.164 H 1 NIL_1    0.000
162 HH 112.522 80.439 -1.657 H 1 NIL_1    0.000
@<TRIPOS>BOND
1 1 2 1 
2 3 1 1 
3 4 1 1 
4 5 10 1 
5 5 1 1 
6 5 162 1 
7 6 2 1 
8 7 3 1 
9 7 6 1 
10 7 155 1 
11 8 4 1 
12 9 4 2 
13 10 8 1 
14 11 6 1 
15 12 7 1 
16 13 8 1 
17 13 153 1 
18 13 154 1 
19 14 10 2 
20 15 11 2 
21 16 20 1 
22 16 11 1 
23 16 151 1 
24 16 152 1 
25 17 12 2 
26 18 12 1 
27 19 13 1 
28 20 25 1 
29 21 18 1 
30 21 27 1 
31 21 149 1 
32 21 150 1 
33 22 18 1 
34 22 28 1 
35 22 147 1 
36 22 148 1 
37 23 19 2 
38 23 146 1 
39 24 30 2 
40 24 19 1 
41 24 145 1 
42 25 31 1 
43 26 20 1 
44 26 33 1 
45 26 143 1 
46 26 144 1 
47 27 35 1 
48 28 141 1 
49 28 142 1 
50 29 23 1 
51 29 140 1 
52 30 37 1 
53 30 139 1 
54 31 138 1 
55 32 25 2 
56 33 136 1 
57 33 137 1 
58 34 27 2 
59 36 28 1 
60 37 29 2 
61 38 45 1 
62 38 31 1 
63 38 134 1 
64 38 135 1 
65 39 46 1 
66 39 31 1 
67 39 47 1 
68 40 33 1 
69 41 35 1 
70 41 49 1 
71 41 132 1 
72 41 133 1 
73 42 51 1 
74 42 35 1 
75 42 131 1 
76 43 36 1 
77 43 128 1 
78 43 129 1 
79 43 130 1 
80 44 37 1 
81 45 46 1 
82 46 126 1 
83 46 127 1 
84 48 40 1 
85 48 123 1 
86 48 124 1 
87 48 125 1 
88 50 42 1 
89 50 59 2 
90 51 49 1 
91 52 44 1 
92 52 118 1 
93 52 119 1 
94 52 120 1 
95 53 45 1 
96 54 63 1 
97 54 45 1 
98 54 161 1 
99 55 47 2 
100 56 60 1 
101 56 47 1 
102 56 116 1 
103 56 117 1 
104 57 49 1 
105 58 66 1 
106 58 49 1 
107 58 160 1 
108 60 50 1 
109 61 53 1 
110 62 53 2 
111 63 61 1 
112 64 57 1 
113 65 57 2 
114 66 64 1 
115 67 60 1 
116 67 72 1 
117 67 114 1 
118 67 115 1 
119 68 61 1 
120 68 112 1 
121 68 113 1 
122 69 63 2 
123 70 64 1 
124 70 74 1 
125 71 66 2 
126 73 68 1 
127 73 76 2 
128 73 77 1 
129 74 78 1 
130 75 72 1 
131 77 82 2 
132 79 84 1 
133 79 74 2 
134 79 104 1 
135 80 75 1 
136 81 76 1 
137 82 85 1 
138 83 78 2 
139 84 86 2 
140 84 97 1 
141 85 81 2 
142 86 88 1 
143 86 83 1 
144 87 85 1 
145 89 87 1 
146 89 96 1 
147 90 88 1 
148 91 90 1 
149 92 90 1 
150 93 90 1 
151 94 89 1 
152 95 89 1 
153 98 83 1 
154 99 82 1 
155 100 81 1 
156 101 80 1 
157 102 80 1 
158 103 80 1 
159 105 78 1 
160 106 77 1 
161 107 76 1 
162 108 72 1 
163 109 72 1 
164 110 70 1 
165 111 70 1 
166 121 51 1 
167 122 51 1 
168 156 3 1 
169 157 3 1 
170 158 2 1 
171 159 2 1 
@<TRIPOS>SUBSTRUCTURE
1 NIL_1 1 RESIDUE 1 A NIL 1
