@<TRIPOS>MOLECULE
NIL
162 171 1 0 0
POLYMER
CHARGES


@<TRIPOS>ATOM
1 CQ 107.313 76.6386 -7.76364 C.3 1 NIL_1    0.000
2 C_1816 106.762 75.270 -8.211 C.3 1 NIL_1    0.000
3 C_1818 108.394 76.307 -6.716 C.3 1 NIL_1    0.000
4 C_1854 106.235 77.559 -7.241 C.2 1 NIL_1    0.000
5 NH 107.807 77.460 -8.859 N.am 1 NIL_1    0.000
6 N 107.484 74.242 -7.430 N.am 1 NIL_1    0.000
7 CP 108.775 74.851 -7.031 C.3 1 NIL_1    0.000
8 N 106.240 78.686 -7.991 N.am 1 NIL_1    0.000
9 O 105.492 77.335 -6.305 O.2 1 NIL_1    0.000
10 C_1856 107.191 78.650 -8.953 C.2 1 NIL_1    0.000
11 C_1841 106.834 73.231 -6.779 C.2 1 NIL_1    0.000
12 C_1838 109.846 74.810 -8.139 C.2 1 NIL_1    0.000
13 C_1868 105.392 79.860 -7.726 C.3 1 NIL_1    0.000
14 O 107.465 79.528 -9.746 O.2 1 NIL_1    0.000
15 O 105.633 73.087 -6.907 O.2 1 NIL_1    0.000
16 C_1840 107.618 72.230 -5.931 C.3 1 NIL_1    0.000
17 O 109.536 74.925 -9.309 O.2 1 NIL_1    0.000
18 N 111.165 74.681 -7.797 N.am 1 NIL_1    0.000
19 C_1869 106.186 80.923 -6.991 C.2 1 NIL_1    0.000
20 N 107.026 71.946 -4.597 N.am 1 NIL_1    0.000
21 C_1829 111.642 74.269 -6.461 C.3 1 NIL_1    0.000
22 C_1871 112.247 74.639 -8.811 C.3 1 NIL_1    0.000
23 C_2204 106.347 82.140 -7.522 C.2 1 NIL_1    0.000
24 C_2212 106.762 80.658 -5.815 C.2 1 NIL_1    0.000
25 C_1843 106.557 70.747 -4.116 C.2 1 NIL_1    0.000
26 C_1872 106.950 73.177 -3.776 C.3 1 NIL_1    0.000
27 C_1830 111.411 72.785 -6.215 C.2 1 NIL_1    0.000
28 C_1876 112.853 76.023 -9.138 C.3 1 NIL_1    0.000
29 C_2206 107.082 83.065 -6.901 C.2 1 NIL_1    0.000
30 C_2210 107.500 81.577 -5.195 C.2 1 NIL_1    0.000
31 AP 106.424 69.501 -4.999 C.3 1 NIL_1    0.000
32 O 106.197 70.654 -2.959 O.2 1 NIL_1    0.000
33 C_1879 108.256 73.543 -3.058 C.3 1 NIL_1    0.000
34 O 111.078 72.035 -7.114 O.2 1 NIL_1    0.000
35 N 111.561 72.327 -4.947 N.am 1 NIL_1    0.000
36 O 113.354 76.667 -7.942 O.3 1 NIL_1    0.000
37 C_2208 107.677 82.786 -5.731 C.2 1 NIL_1    0.000
38 C_1827 105.265 69.680 -5.997 C.3 1 NIL_1    0.000
39 N 107.612 69.059 -5.753 N.am 1 NIL_1    0.000
40 O 108.040 74.838 -2.455 O.3 1 NIL_1    0.000
41 C_1813 111.938 73.130 -3.773 C.3 1 NIL_1    0.000
42 BP 111.110 70.990 -4.531 C.3 1 NIL_1    0.000
43 C_1878 114.672 76.268 -7.506 C.3 1 NIL_1    0.000
44 O 108.459 83.675 -5.038 O.3 1 NIL_1    0.000
45 AQ 105.709 68.886 -7.229 C.3 1 NIL_1    0.000
46 C_1825 107.246 68.851 -7.164 C.3 1 NIL_1    0.000
47 C_1844 108.835 68.823 -5.210 C.2 1 NIL_1    0.000
48 C_1881 109.139 75.375 -1.696 C.3 1 NIL_1    0.000
49 BQ 111.875 72.204 -2.547 C.3 1 NIL_1    0.000
50 C_1833 111.970 69.839 -5.054 C.2 1 NIL_1    0.000
51 C_1815 111.065 70.978 -2.993 C.3 1 NIL_1    0.000
52 C_2271 109.071 84.777 -5.751 C.3 1 NIL_1    0.000
53 C_1846 105.161 69.433 -8.523 C.2 1 NIL_1    0.000
54 NH 105.110 67.563 -7.249 N.am 1 NIL_1    0.000
55 O 108.986 68.715 -4.007 O.2 1 NIL_1    0.000
56 C_1835 109.997 68.751 -6.190 C.3 1 NIL_1    0.000
57 C_1850 113.254 71.850 -2.038 C.2 1 NIL_1    0.000
58 NH 111.341 72.829 -1.347 N.am 1 NIL_1    0.000
59 O 113.179 69.872 -4.927 O.2 1 NIL_1    0.000
60 N 111.359 68.742 -5.599 N.am 1 NIL_1    0.000
61 N 104.349 68.491 -9.058 N.am 1 NIL_1    0.000
62 O 105.400 70.526 -9.002 O.2 1 NIL_1    0.000
63 C_1848 104.292 67.374 -8.296 C.2 1 NIL_1    0.000
64 N 113.334 72.222 -0.739 N.am 1 NIL_1    0.000
65 O 114.153 71.339 -2.675 O.2 1 NIL_1    0.000
66 C_1852 112.192 72.808 -0.309 C.2 1 NIL_1    0.000
67 C_1870 112.134 67.523 -5.929 C.3 1 NIL_1    0.000
68 C_1866 103.600 68.661 -10.313 C.3 1 NIL_1    0.000
69 O 103.626 66.378 -8.501 O.2 1 NIL_1    0.000
70 C_1864 114.527 72.023 0.100 C.3 1 NIL_1    0.000
71 O 111.959 73.239 0.802 O.2 1 NIL_1    0.000
72 C_1873 112.417 66.645 -4.696 C.3 1 NIL_1    0.000
73 C_1867 102.155 69.017 -10.036 C.2 1 NIL_1    0.000
74 C_1865 114.951 70.569 0.204 C.2 1 NIL_1    0.000
75 O 113.140 65.473 -5.136 O.3 1 NIL_1    0.000
76 C_2172 101.195 68.090 -10.103 C.2 1 NIL_1    0.000
77 C_2180 101.818 70.268 -9.713 C.2 1 NIL_1    0.000
78 C_2196 114.126 69.650 0.713 C.2 1 NIL_1    0.000
79 C_2188 116.162 70.186 -0.208 C.2 1 NIL_1    0.000
80 C_1875 113.643 64.612 -4.093 C.3 1 NIL_1    0.000
81 C_2174 99.925 68.409 -9.850 C.2 1 NIL_1    0.000
82 C_2178 100.551 70.589 -9.459 C.2 1 NIL_1    0.000
83 C_2194 114.509 68.376 0.813 C.2 1 NIL_1    0.000
84 C_2190 116.548 68.912 -0.108 C.2 1 NIL_1    0.000
85 C_2176 99.586 69.658 -9.521 C.2 1 NIL_1    0.000
86 C_2192 115.722 67.991 0.410 C.2 1 NIL_1    0.000
87 O 98.261 69.908 -9.267 O.3 1 NIL_1    0.000
88 O 116.039 66.663 0.564 O.3 1 NIL_1    0.000
89 C_2273 97.880 71.177 -8.682 C.3 1 NIL_1    0.000
90 C_2269 117.334 66.172 0.144 C.3 1 NIL_1    0.000
91 H_22691 117.451 66.325 -0.932 H 1 NIL_1    0.000
92 H_22692 117.387 65.104 0.367 H 1 NIL_1    0.000
93 H_22693 118.123 66.694 0.692 H 1 NIL_1    0.000
94 H_22731 96.805 71.169 -8.487 H 1 NIL_1    0.000
95 H_22732 98.114 71.987 -9.378 H 1 NIL_1    0.000
96 H_22733 98.419 71.320 -7.741 H 1 NIL_1    0.000
97 H_2190 117.546 68.651 -0.452 H 1 NIL_1    0.000
98 H_2194 113.823 67.644 1.235 H 1 NIL_1    0.000
99 H_2178 100.329 71.620 -9.202 H 1 NIL_1    0.000
100 H_2174 99.162 67.636 -9.910 H 1 NIL_1    0.000
101 H_18751 114.145 63.760 -4.559 H 1 NIL_1    0.000
102 H_18752 112.814 64.255 -3.475 H 1 NIL_1    0.000
103 H_18753 114.357 65.165 -3.477 H 1 NIL_1    0.000
104 H_2188 116.848 70.917 -0.629 H 1 NIL_1    0.000
105 H_2196 113.132 69.936 1.052 H 1 NIL_1    0.000
106 H_2180 102.584 71.038 -9.654 H 1 NIL_1    0.000
107 H_2172 101.446 67.064 -10.364 H 1 NIL_1    0.000
108 H_18731 113.033 67.199 -3.982 H 1 NIL_1    0.000
109 H_18732 111.485 66.338 -4.214 H 1 NIL_1    0.000
110 H_18641 114.330 72.406 1.105 H 1 NIL_1    0.000
111 H_18642 115.339 72.619 -0.323 H 1 NIL_1    0.000
112 H_18661 103.656 67.731 -10.883 H 1 NIL_1    0.000
113 H_18662 104.070 69.447 -10.912 H 1 NIL_1    0.000
114 H_18701 113.087 67.821 -6.373 H 1 NIL_1    0.000
115 H_18702 111.608 66.916 -6.672 H 1 NIL_1    0.000
116 H_18351 109.830 67.868 -6.812 H 1 NIL_1    0.000
117 H_18352 109.918 69.627 -6.841 H 1 NIL_1    0.000
118 H_22711 109.649 84.390 -6.595 H 1 NIL_1    0.000
119 H_22712 109.738 85.308 -5.067 H 1 NIL_1    0.000
120 H_22713 108.295 85.462 -6.102 H 1 NIL_1    0.000
121 H_18151 110.025 71.087 -2.679 H 1 NIL_1    0.000
122 H_18152 111.448 70.049 -2.563 H 1 NIL_1    0.000
123 H_18811 108.852 76.360 -1.319 H 1 NIL_1    0.000
124 H_18812 110.015 75.470 -2.342 H 1 NIL_1    0.000
125 H_18813 109.357 74.713 -0.855 H 1 NIL_1    0.000
126 H_18251 107.626 67.889 -7.517 H 1 NIL_1    0.000
127 H_18252 107.676 69.649 -7.775 H 1 NIL_1    0.000
128 H_18781 115.403 76.541 -8.273 H 1 NIL_1    0.000
129 H_18782 114.701 75.189 -7.335 H 1 NIL_1    0.000
130 H_18783 114.908 76.793 -6.578 H 1 NIL_1    0.000
131 HP 110.095 70.891 -4.902 H 1 NIL_1    0.000
132 H_18131 111.230 73.954 -3.656 H 1 NIL_1    0.000
133 H_18132 112.943 73.541 -3.903 H 1 NIL_1    0.000
134 H_18271 104.318 69.325 -5.583 H 1 NIL_1    0.000
135 H_18272 105.137 70.729 -6.256 H 1 NIL_1    0.000
136 H_18791 108.490 72.809 -2.284 H 1 NIL_1    0.000
137 H_18792 109.079 73.610 -3.772 H 1 NIL_1    0.000
138 HP 106.160 68.675 -4.331 H 1 NIL_1    0.000
139 H_2210 107.970 81.331 -4.246 H 1 NIL_1    0.000
140 H_2206 107.185 84.040 -7.370 H 1 NIL_1    0.000
141 H_18761 113.668 75.922 -9.860 H 1 NIL_1    0.000
142 H_18762 112.079 76.664 -9.568 H 1 NIL_1    0.000
143 H_18721 106.164 73.068 -3.023 H 1 NIL_1    0.000
144 H_18722 106.663 74.022 -4.404 H 1 NIL_1    0.000
145 H_2212 106.643 79.680 -5.356 H 1 NIL_1    0.000
146 H_2204 105.882 82.384 -8.475 H 1 NIL_1    0.000
147 H_18711 111.853 74.213 -9.737 H 1 NIL_1    0.000
148 H_18712 113.041 73.967 -8.476 H 1 NIL_1    0.000
149 H_18291 111.131 74.848 -5.690 H 1 NIL_1    0.000
150 H_18292 112.715 74.451 -6.360 H 1 NIL_1    0.000
151 H_18401 107.660 71.342 -6.542 H 1 NIL_1    0.000
152 H_18402 108.646 72.553 -5.789 H 1 NIL_1    0.000
153 H_18681 104.525 79.561 -7.131 H 1 NIL_1    0.000
154 H_18682 105.028 80.251 -8.680 H 1 NIL_1    0.000
155 HP 109.154 74.398 -6.120 H 1 NIL_1    0.000
156 H_18181 107.965 76.351 -5.709 H 1 NIL_1    0.000
157 H_18182 109.251 76.984 -6.754 H 1 NIL_1    0.000
158 H_18161 105.684 75.221 -8.038 H 1 NIL_1    0.000
159 H_18162 106.949 75.104 -9.276 H 1 NIL_1    0.000
160 HH 110.400 73.187 -1.294 H 1 NIL_1    0.000
161 HH 105.250 66.894 -6.507 H 1 NIL_1    0.000
162 HH 108.579 77.179 -9.444 H 1 NIL_1    0.000
@<TRIPOS>BOND
1 1 2 1 
2 3 1 1 
3 4 1 1 
4 5 10 1 
5 5 1 1 
6 5 162 1 
7 6 2 1 
8 7 3 1 
9 7 6 1 
10 7 155 1 
11 8 4 1 
12 9 4 2 
13 10 8 1 
14 11 6 1 
15 12 7 1 
16 13 8 1 
17 13 153 1 
18 13 154 1 
19 14 10 2 
20 15 11 2 
21 16 20 1 
22 16 11 1 
23 16 151 1 
24 16 152 1 
25 17 12 2 
26 18 12 1 
27 19 13 1 
28 20 25 1 
29 21 18 1 
30 21 27 1 
31 21 149 1 
32 21 150 1 
33 22 18 1 
34 22 28 1 
35 22 147 1 
36 22 148 1 
37 23 19 2 
38 23 146 1 
39 24 30 2 
40 24 19 1 
41 24 145 1 
42 25 31 1 
43 26 20 1 
44 26 33 1 
45 26 143 1 
46 26 144 1 
47 27 35 1 
48 28 141 1 
49 28 142 1 
50 29 23 1 
51 29 140 1 
52 30 37 1 
53 30 139 1 
54 31 138 1 
55 32 25 2 
56 33 136 1 
57 33 137 1 
58 34 27 2 
59 36 28 1 
60 37 29 2 
61 38 45 1 
62 38 31 1 
63 38 134 1 
64 38 135 1 
65 39 46 1 
66 39 31 1 
67 39 47 1 
68 40 33 1 
69 41 35 1 
70 41 49 1 
71 41 132 1 
72 41 133 1 
73 42 51 1 
74 42 35 1 
75 42 131 1 
76 43 36 1 
77 43 128 1 
78 43 129 1 
79 43 130 1 
80 44 37 1 
81 45 46 1 
82 46 126 1 
83 46 127 1 
84 48 40 1 
85 48 123 1 
86 48 124 1 
87 48 125 1 
88 50 42 1 
89 50 59 2 
90 51 49 1 
91 52 44 1 
92 52 118 1 
93 52 119 1 
94 52 120 1 
95 53 45 1 
96 54 63 1 
97 54 45 1 
98 54 161 1 
99 55 47 2 
100 56 60 1 
101 56 47 1 
102 56 116 1 
103 56 117 1 
104 57 49 1 
105 58 66 1 
106 58 49 1 
107 58 160 1 
108 60 50 1 
109 61 53 1 
110 62 53 2 
111 63 61 1 
112 64 57 1 
113 65 57 2 
114 66 64 1 
115 67 60 1 
116 67 72 1 
117 67 114 1 
118 67 115 1 
119 68 61 1 
120 68 112 1 
121 68 113 1 
122 69 63 2 
123 70 64 1 
124 70 74 1 
125 71 66 2 
126 73 68 1 
127 73 76 2 
128 73 77 1 
129 74 78 1 
130 75 72 1 
131 77 82 2 
132 79 84 1 
133 79 74 2 
134 79 104 1 
135 80 75 1 
136 81 76 1 
137 82 85 1 
138 83 78 2 
139 84 86 2 
140 84 97 1 
141 85 81 2 
142 86 88 1 
143 86 83 1 
144 87 85 1 
145 89 87 1 
146 89 96 1 
147 90 88 1 
148 91 90 1 
149 92 90 1 
150 93 90 1 
151 94 89 1 
152 95 89 1 
153 98 83 1 
154 99 82 1 
155 100 81 1 
156 101 80 1 
157 102 80 1 
158 103 80 1 
159 105 78 1 
160 106 77 1 
161 107 76 1 
162 108 72 1 
163 109 72 1 
164 110 70 1 
165 111 70 1 
166 121 51 1 
167 122 51 1 
168 156 3 1 
169 157 3 1 
170 158 2 1 
171 159 2 1 
@<TRIPOS>SUBSTRUCTURE
1 NIL_1 1 RESIDUE 1 A NIL 1
