@<TRIPOS>MOLECULE
NIL
162 171 1 0 0
POLYMER
CHARGES


@<TRIPOS>ATOM
1 CQ 82.1195 51.0341 -34.26 C.3 1 NIL_1    0.000
2 C_1816 83.481 50.325 -34.195 C.3 1 NIL_1    0.000
3 C_1818 81.261 50.343 -33.174 C.3 1 NIL_1    0.000
4 C_1854 81.520 50.904 -35.642 C.2 1 NIL_1    0.000
5 NH 82.185 52.485 -34.169 N.am 1 NIL_1    0.000
6 N 83.155 48.999 -33.644 N.am 1 NIL_1    0.000
7 CP 82.213 49.296 -32.541 C.3 1 NIL_1    0.000
8 N 81.351 52.147 -36.150 N.am 1 NIL_1    0.000
9 O 81.238 49.865 -36.207 O.2 1 NIL_1    0.000
10 C_1856 81.736 53.106 -35.275 C.2 1 NIL_1    0.000
11 C_1841 83.231 47.873 -34.413 C.2 1 NIL_1    0.000
12 C_1838 82.940 49.807 -31.280 C.2 1 NIL_1    0.000
13 C_1868 80.757 52.423 -37.469 C.3 1 NIL_1    0.000
14 O 81.684 54.308 -35.442 O.2 1 NIL_1    0.000
15 O 83.998 47.871 -35.355 O.2 1 NIL_1    0.000
16 C_1840 82.284 46.694 -34.116 C.3 1 NIL_1    0.000
17 O 82.616 50.863 -30.769 O.2 1 NIL_1    0.000
18 N 83.999 49.102 -30.768 N.am 1 NIL_1    0.000
19 C_1869 81.752 52.446 -38.616 C.2 1 NIL_1    0.000
20 N 82.721 45.299 -34.416 N.am 1 NIL_1    0.000
21 C_1829 84.342 47.703 -31.135 C.3 1 NIL_1    0.000
22 C_1871 84.952 49.729 -29.808 C.3 1 NIL_1    0.000
23 C_2204 82.160 51.309 -39.188 C.2 1 NIL_1    0.000
24 C_2212 82.218 53.605 -39.094 C.2 1 NIL_1    0.000
25 C_1843 82.285 44.211 -33.717 C.2 1 NIL_1    0.000
26 C_1872 83.360 45.071 -35.733 C.3 1 NIL_1    0.000
27 C_1830 84.526 46.722 -29.980 C.2 1 NIL_1    0.000
28 C_1876 86.445 49.422 -30.065 C.3 1 NIL_1    0.000
29 C_2206 83.008 51.328 -40.217 C.2 1 NIL_1    0.000
30 C_2210 83.064 53.628 -40.126 C.2 1 NIL_1    0.000
31 AP 80.990 44.299 -32.899 C.3 1 NIL_1    0.000
32 O 82.886 43.156 -33.804 O.2 1 NIL_1    0.000
33 C_1879 84.866 44.721 -35.684 C.3 1 NIL_1    0.000
34 O 84.106 46.959 -28.864 O.2 1 NIL_1    0.000
35 N 85.151 45.545 -30.261 N.am 1 NIL_1    0.000
36 O 87.240 50.279 -29.219 O.3 1 NIL_1    0.000
37 C_2208 83.458 52.487 -40.702 C.2 1 NIL_1    0.000
38 C_1827 79.748 44.265 -33.823 C.3 1 NIL_1    0.000
39 N 80.848 43.147 -31.982 N.am 1 NIL_1    0.000
40 O 85.580 45.636 -34.827 O.3 1 NIL_1    0.000
41 C_1813 85.770 45.179 -31.548 C.3 1 NIL_1    0.000
42 BP 85.365 44.441 -29.298 C.3 1 NIL_1    0.000
43 C_1878 88.668 50.062 -29.281 C.3 1 NIL_1    0.000
44 O 84.313 52.473 -41.768 O.3 1 NIL_1    0.000
45 AQ 79.261 42.804 -33.798 C.3 1 NIL_1    0.000
46 C_1825 79.788 42.248 -32.466 C.3 1 NIL_1    0.000
47 C_1844 81.590 42.888 -30.872 C.2 1 NIL_1    0.000
48 C_1881 87.015 45.606 -34.956 C.3 1 NIL_1    0.000
49 BQ 86.610 43.915 -31.300 C.3 1 NIL_1    0.000
50 C_1833 84.185 43.991 -28.430 C.2 1 NIL_1    0.000
51 C_1815 85.966 43.256 -30.074 C.3 1 NIL_1    0.000
52 C_2271 83.871 53.208 -42.936 C.3 1 NIL_1    0.000
53 C_1846 79.738 41.977 -34.973 C.2 1 NIL_1    0.000
54 NH 77.827 42.608 -33.954 N.am 1 NIL_1    0.000
55 O 81.517 41.804 -30.323 O.2 1 NIL_1    0.000
56 C_1835 82.523 43.987 -30.364 C.3 1 NIL_1    0.000
57 C_1850 86.707 42.982 -32.482 C.2 1 NIL_1    0.000
58 NH 88.024 44.202 -31.109 N.am 1 NIL_1    0.000
59 O 84.401 43.753 -27.258 O.2 1 NIL_1    0.000
60 N 82.911 43.900 -28.930 N.am 1 NIL_1    0.000
61 N 78.663 41.382 -35.543 N.am 1 NIL_1    0.000
62 O 80.887 41.845 -35.346 O.2 1 NIL_1    0.000
63 C_1848 77.509 41.732 -34.924 C.2 1 NIL_1    0.000
64 N 88.018 42.796 -32.770 N.am 1 NIL_1    0.000
65 O 85.771 42.474 -33.068 O.2 1 NIL_1    0.000
66 C_1852 88.819 43.534 -31.961 C.2 1 NIL_1    0.000
67 C_1870 81.743 43.793 -28.017 C.3 1 NIL_1    0.000
68 C_1866 78.766 40.382 -36.625 C.3 1 NIL_1    0.000
69 O 76.389 41.334 -35.175 O.2 1 NIL_1    0.000
70 C_1864 88.510 41.901 -33.835 C.3 1 NIL_1    0.000
71 O 90.032 43.597 -31.985 O.2 1 NIL_1    0.000
72 C_1873 81.225 45.148 -27.504 C.3 1 NIL_1    0.000
73 C_1867 77.693 40.439 -37.697 C.2 1 NIL_1    0.000
74 C_1865 89.389 40.785 -33.300 C.2 1 NIL_1    0.000
75 O 82.146 45.683 -26.530 O.3 1 NIL_1    0.000
76 C_2172 77.613 41.481 -38.530 C.2 1 NIL_1    0.000
77 C_2180 76.809 39.446 -37.826 C.2 1 NIL_1    0.000
78 C_2196 88.856 39.695 -32.738 C.2 1 NIL_1    0.000
79 C_2188 90.720 40.880 -33.373 C.2 1 NIL_1    0.000
80 C_1875 81.592 46.724 -25.696 C.3 1 NIL_1    0.000
81 C_2174 76.664 41.530 -39.467 C.2 1 NIL_1    0.000
82 C_2178 75.860 39.494 -38.762 C.2 1 NIL_1    0.000
83 C_2194 89.638 38.734 -32.246 C.2 1 NIL_1    0.000
84 C_2190 91.504 39.923 -32.879 C.2 1 NIL_1    0.000
85 C_2176 75.774 40.543 -39.592 C.2 1 NIL_1    0.000
86 C_2192 90.970 38.835 -32.302 C.2 1 NIL_1    0.000
87 O 74.822 40.668 -40.574 O.3 1 NIL_1    0.000
88 O 91.707 37.811 -31.761 O.3 1 NIL_1    0.000
89 C_2273 73.695 39.759 -40.587 C.3 1 NIL_1    0.000
90 C_2269 93.154 37.862 -31.811 C.3 1 NIL_1    0.000
91 H_22691 93.509 38.747 -31.276 H 1 NIL_1    0.000
92 H_22692 93.482 37.892 -32.853 H 1 NIL_1    0.000
93 H_22693 93.553 36.965 -31.331 H 1 NIL_1    0.000
94 H_22731 74.049 38.739 -40.763 H 1 NIL_1    0.000
95 H_22732 73.017 40.050 -41.393 H 1 NIL_1    0.000
96 H_22733 73.168 39.818 -39.629 H 1 NIL_1    0.000
97 H_2190 92.580 40.055 -32.957 H 1 NIL_1    0.000
98 H_2194 89.184 37.857 -31.789 H 1 NIL_1    0.000
99 H_2178 75.167 38.659 -38.825 H 1 NIL_1    0.000
100 H_2174 76.618 42.389 -40.133 H 1 NIL_1    0.000
101 H_18751 82.374 47.110 -25.037 H 1 NIL_1    0.000
102 H_18752 80.784 46.300 -25.093 H 1 NIL_1    0.000
103 H_18753 81.205 47.533 -26.322 H 1 NIL_1    0.000
104 H_2188 91.175 41.754 -33.833 H 1 NIL_1    0.000
105 H_2196 87.776 39.587 -32.676 H 1 NIL_1    0.000
106 H_2180 76.854 38.585 -37.161 H 1 NIL_1    0.000
107 H_2172 78.324 42.300 -38.446 H 1 NIL_1    0.000
108 H_18731 81.109 45.862 -28.324 H 1 NIL_1    0.000
109 H_18732 80.257 44.990 -27.021 H 1 NIL_1    0.000
110 H_18641 89.065 42.503 -34.561 H 1 NIL_1    0.000
111 H_18642 87.660 41.458 -34.364 H 1 NIL_1    0.000
112 H_18661 78.754 39.396 -36.152 H 1 NIL_1    0.000
113 H_18662 79.738 40.491 -37.114 H 1 NIL_1    0.000
114 H_18701 81.993 43.152 -27.168 H 1 NIL_1    0.000
115 H_18702 80.901 43.320 -28.522 H 1 NIL_1    0.000
116 H_18351 83.397 43.922 -31.008 H 1 NIL_1    0.000
117 H_18352 82.044 44.956 -30.519 H 1 NIL_1    0.000
118 H_22711 82.879 52.857 -43.234 H 1 NIL_1    0.000
119 H_22712 84.578 53.031 -43.750 H 1 NIL_1    0.000
120 H_22713 83.836 54.278 -42.714 H 1 NIL_1    0.000
121 H_18151 86.685 42.694 -29.472 H 1 NIL_1    0.000
122 H_18152 85.173 42.576 -30.392 H 1 NIL_1    0.000
123 H_18811 87.378 44.586 -34.805 H 1 NIL_1    0.000
124 H_18812 87.452 46.269 -34.204 H 1 NIL_1    0.000
125 H_18813 87.291 45.955 -35.956 H 1 NIL_1    0.000
126 H_18251 78.987 42.250 -31.723 H 1 NIL_1    0.000
127 H_18252 80.161 41.227 -32.585 H 1 NIL_1    0.000
128 H_18781 88.894 49.042 -28.959 H 1 NIL_1    0.000
129 H_18782 89.160 50.774 -28.613 H 1 NIL_1    0.000
130 H_18783 89.026 50.216 -30.302 H 1 NIL_1    0.000
131 HP 86.130 44.793 -28.600 H 1 NIL_1    0.000
132 H_18131 86.413 45.984 -31.917 H 1 NIL_1    0.000
133 H_18132 84.978 44.981 -32.275 H 1 NIL_1    0.000
134 H_18271 78.975 44.911 -33.397 H 1 NIL_1    0.000
135 H_18272 79.959 44.617 -34.836 H 1 NIL_1    0.000
136 H_18791 85.005 43.709 -35.294 H 1 NIL_1    0.000
137 H_18792 85.280 44.775 -36.695 H 1 NIL_1    0.000
138 HP 80.974 45.225 -32.323 H 1 NIL_1    0.000
139 H_2210 83.428 54.585 -40.496 H 1 NIL_1    0.000
140 H_2206 83.324 50.390 -40.671 H 1 NIL_1    0.000
141 H_18761 86.671 48.380 -29.823 H 1 NIL_1    0.000
142 H_18762 86.701 49.623 -31.110 H 1 NIL_1    0.000
143 H_18721 83.197 45.930 -36.387 H 1 NIL_1    0.000
144 H_18722 82.844 44.235 -36.214 H 1 NIL_1    0.000
145 H_2212 81.902 54.545 -38.646 H 1 NIL_1    0.000
146 H_2204 81.796 50.353 -38.821 H 1 NIL_1    0.000
147 H_18711 84.687 49.419 -28.795 H 1 NIL_1    0.000
148 H_18712 84.840 50.816 -29.850 H 1 NIL_1    0.000
149 H_18291 85.254 47.726 -31.734 H 1 NIL_1    0.000
150 H_18292 83.553 47.261 -31.735 H 1 NIL_1    0.000
151 H_18401 82.075 46.725 -33.053 H 1 NIL_1    0.000
152 H_18402 81.353 46.903 -34.651 H 1 NIL_1    0.000
153 H_18681 80.236 53.383 -37.419 H 1 NIL_1    0.000
154 H_18682 79.997 51.663 -37.670 H 1 NIL_1    0.000
155 HP 81.628 48.433 -32.228 H 1 NIL_1    0.000
156 H_18181 80.414 49.827 -33.633 H 1 NIL_1    0.000
157 H_18182 80.849 51.049 -32.452 H 1 NIL_1    0.000
158 H_18161 83.948 50.278 -35.184 H 1 NIL_1    0.000
159 H_18162 84.149 50.850 -33.507 H 1 NIL_1    0.000
160 HH 88.364 44.819 -30.387 H 1 NIL_1    0.000
161 HH 77.157 42.988 -33.305 H 1 NIL_1    0.000
162 HH 82.501 52.966 -33.341 H 1 NIL_1    0.000
@<TRIPOS>BOND
1 1 2 1 
2 3 1 1 
3 4 1 1 
4 5 10 1 
5 5 1 1 
6 5 162 1 
7 6 2 1 
8 7 3 1 
9 7 6 1 
10 7 155 1 
11 8 4 1 
12 9 4 2 
13 10 8 1 
14 11 6 1 
15 12 7 1 
16 13 8 1 
17 13 153 1 
18 13 154 1 
19 14 10 2 
20 15 11 2 
21 16 20 1 
22 16 11 1 
23 16 151 1 
24 16 152 1 
25 17 12 2 
26 18 12 1 
27 19 13 1 
28 20 25 1 
29 21 18 1 
30 21 27 1 
31 21 149 1 
32 21 150 1 
33 22 18 1 
34 22 28 1 
35 22 147 1 
36 22 148 1 
37 23 19 2 
38 23 146 1 
39 24 30 2 
40 24 19 1 
41 24 145 1 
42 25 31 1 
43 26 20 1 
44 26 33 1 
45 26 143 1 
46 26 144 1 
47 27 35 1 
48 28 141 1 
49 28 142 1 
50 29 23 1 
51 29 140 1 
52 30 37 1 
53 30 139 1 
54 31 138 1 
55 32 25 2 
56 33 136 1 
57 33 137 1 
58 34 27 2 
59 36 28 1 
60 37 29 2 
61 38 45 1 
62 38 31 1 
63 38 134 1 
64 38 135 1 
65 39 46 1 
66 39 31 1 
67 39 47 1 
68 40 33 1 
69 41 35 1 
70 41 49 1 
71 41 132 1 
72 41 133 1 
73 42 51 1 
74 42 35 1 
75 42 131 1 
76 43 36 1 
77 43 128 1 
78 43 129 1 
79 43 130 1 
80 44 37 1 
81 45 46 1 
82 46 126 1 
83 46 127 1 
84 48 40 1 
85 48 123 1 
86 48 124 1 
87 48 125 1 
88 50 42 1 
89 50 59 2 
90 51 49 1 
91 52 44 1 
92 52 118 1 
93 52 119 1 
94 52 120 1 
95 53 45 1 
96 54 63 1 
97 54 45 1 
98 54 161 1 
99 55 47 2 
100 56 60 1 
101 56 47 1 
102 56 116 1 
103 56 117 1 
104 57 49 1 
105 58 66 1 
106 58 49 1 
107 58 160 1 
108 60 50 1 
109 61 53 1 
110 62 53 2 
111 63 61 1 
112 64 57 1 
113 65 57 2 
114 66 64 1 
115 67 60 1 
116 67 72 1 
117 67 114 1 
118 67 115 1 
119 68 61 1 
120 68 112 1 
121 68 113 1 
122 69 63 2 
123 70 64 1 
124 70 74 1 
125 71 66 2 
126 73 68 1 
127 73 76 2 
128 73 77 1 
129 74 78 1 
130 75 72 1 
131 77 82 2 
132 79 84 1 
133 79 74 2 
134 79 104 1 
135 80 75 1 
136 81 76 1 
137 82 85 1 
138 83 78 2 
139 84 86 2 
140 84 97 1 
141 85 81 2 
142 86 88 1 
143 86 83 1 
144 87 85 1 
145 89 87 1 
146 89 96 1 
147 90 88 1 
148 91 90 1 
149 92 90 1 
150 93 90 1 
151 94 89 1 
152 95 89 1 
153 98 83 1 
154 99 82 1 
155 100 81 1 
156 101 80 1 
157 102 80 1 
158 103 80 1 
159 105 78 1 
160 106 77 1 
161 107 76 1 
162 108 72 1 
163 109 72 1 
164 110 70 1 
165 111 70 1 
166 121 51 1 
167 122 51 1 
168 156 3 1 
169 157 3 1 
170 158 2 1 
171 159 2 1 
@<TRIPOS>SUBSTRUCTURE
1 NIL_1 1 RESIDUE 1 A NIL 1
