@<TRIPOS>MOLECULE
NIL
162 171 1 0 0
POLYMER
CHARGES


@<TRIPOS>ATOM
1 CQ 109.539 78.6818 -3.94943 C.3 1 NIL_1    0.000
2 C_1816 108.221 77.900 -3.876 C.3 1 NIL_1    0.000
3 C_1818 110.259 78.264 -2.659 C.3 1 NIL_1    0.000
4 C_1854 109.326 80.164 -4.171 C.2 1 NIL_1    0.000
5 NH 110.293 78.376 -5.150 N.am 1 NIL_1    0.000
6 N 108.400 76.775 -2.934 N.am 1 NIL_1    0.000
7 CP 109.826 76.784 -2.498 C.3 1 NIL_1    0.000
8 N 109.862 80.490 -5.377 N.am 1 NIL_1    0.000
9 O 108.742 80.919 -3.418 O.2 1 NIL_1    0.000
10 C_1856 110.448 79.424 -5.971 C.2 1 NIL_1    0.000
11 C_1841 107.323 76.002 -2.571 C.2 1 NIL_1    0.000
12 C_1838 110.725 75.886 -3.360 C.2 1 NIL_1    0.000
13 C_1868 109.717 81.791 -6.065 C.3 1 NIL_1    0.000
14 O 111.006 79.395 -7.050 O.2 1 NIL_1    0.000
15 O 106.282 76.133 -3.187 O.2 1 NIL_1    0.000
16 C_1840 107.302 74.983 -1.424 C.3 1 NIL_1    0.000
17 O 110.276 75.389 -4.375 O.2 1 NIL_1    0.000
18 N 112.046 75.718 -3.032 N.am 1 NIL_1    0.000
19 C_1869 109.713 83.051 -5.220 C.2 1 NIL_1    0.000
20 N 108.558 74.469 -0.846 N.am 1 NIL_1    0.000
21 C_1829 112.618 75.956 -1.666 C.3 1 NIL_1    0.000
22 C_1871 112.985 75.157 -4.038 C.3 1 NIL_1    0.000
23 C_2204 110.809 83.435 -4.561 C.2 1 NIL_1    0.000
24 C_2212 108.611 83.799 -5.124 C.2 1 NIL_1    0.000
25 C_1843 109.470 73.624 -1.425 C.2 1 NIL_1    0.000
26 C_1872 108.677 74.859 0.587 C.3 1 NIL_1    0.000
27 C_1830 114.132 75.999 -1.533 C.2 1 NIL_1    0.000
28 C_1876 113.513 76.201 -5.047 C.3 1 NIL_1    0.000
29 C_2206 110.797 84.539 -3.809 C.2 1 NIL_1    0.000
30 C_2210 108.597 84.903 -4.375 C.2 1 NIL_1    0.000
31 AP 109.123 72.527 -2.463 C.3 1 NIL_1    0.000
32 O 110.598 73.690 -1.010 O.2 1 NIL_1    0.000
33 C_1879 108.942 76.355 0.887 C.3 1 NIL_1    0.000
34 O 114.728 76.973 -1.955 O.2 1 NIL_1    0.000
35 N 114.816 74.969 -0.939 N.am 1 NIL_1    0.000
36 O 112.498 76.605 -5.993 O.3 1 NIL_1    0.000
37 C_2208 109.692 85.282 -3.700 C.2 1 NIL_1    0.000
38 C_1827 108.093 72.930 -3.544 C.3 1 NIL_1    0.000
39 N 110.283 71.934 -3.217 N.am 1 NIL_1    0.000
40 O 110.347 76.680 0.757 O.3 1 NIL_1    0.000
41 C_1813 116.272 75.063 -0.732 C.3 1 NIL_1    0.000
42 BP 114.310 73.716 -0.282 C.3 1 NIL_1    0.000
43 C_1878 112.126 75.641 -7.004 C.3 1 NIL_1    0.000
44 O 109.745 86.393 -2.891 O.3 1 NIL_1    0.000
45 AQ 108.455 72.084 -4.760 C.3 1 NIL_1    0.000
46 C_1825 109.973 71.984 -4.660 C.3 1 NIL_1    0.000
47 C_1844 111.389 71.253 -2.778 C.2 1 NIL_1    0.000
48 C_1881 111.228 76.292 1.831 C.3 1 NIL_1    0.000
49 BQ 116.773 73.668 -0.367 C.3 1 NIL_1    0.000
50 C_1833 113.526 72.735 -1.166 C.2 1 NIL_1    0.000
51 C_1815 115.560 73.001 0.291 C.3 1 NIL_1    0.000
52 C_2271 108.530 87.133 -2.610 C.3 1 NIL_1    0.000
53 C_1846 107.944 72.641 -6.065 C.2 1 NIL_1    0.000
54 NH 107.794 70.786 -4.773 N.am 1 NIL_1    0.000
55 O 112.173 70.779 -3.580 O.2 1 NIL_1    0.000
56 C_1835 111.634 71.005 -1.293 C.3 1 NIL_1    0.000
57 C_1850 117.285 72.961 -1.603 C.2 1 NIL_1    0.000
58 NH 117.985 73.647 0.434 N.am 1 NIL_1    0.000
59 O 113.705 72.751 -2.363 O.2 1 NIL_1    0.000
60 N 112.670 71.824 -0.586 N.am 1 NIL_1    0.000
61 N 107.110 71.723 -6.609 N.am 1 NIL_1    0.000
62 O 108.215 73.728 -6.538 O.2 1 NIL_1    0.000
63 C_1848 107.008 70.608 -5.848 C.2 1 NIL_1    0.000
64 N 118.606 72.697 -1.422 N.am 1 NIL_1    0.000
65 O 116.634 72.713 -2.599 O.2 1 NIL_1    0.000
66 C_1852 119.033 73.099 -0.202 C.2 1 NIL_1    0.000
67 C_1870 112.691 71.459 0.851 C.3 1 NIL_1    0.000
68 C_1866 106.351 71.930 -7.853 C.3 1 NIL_1    0.000
69 O 106.331 69.626 -6.078 O.2 1 NIL_1    0.000
70 C_1864 119.524 72.147 -2.443 C.3 1 NIL_1    0.000
71 O 120.158 73.000 0.247 O.2 1 NIL_1    0.000
72 C_1873 111.627 72.158 1.719 C.3 1 NIL_1    0.000
73 C_1867 104.889 72.269 -7.613 C.2 1 NIL_1    0.000
74 C_1865 118.934 71.178 -3.448 C.2 1 NIL_1    0.000
75 O 110.411 71.376 1.694 O.3 1 NIL_1    0.000
76 C_2172 104.523 73.171 -6.695 C.2 1 NIL_1    0.000
77 C_2180 103.937 71.671 -8.336 C.2 1 NIL_1    0.000
78 C_2196 118.608 69.936 -3.081 C.2 1 NIL_1    0.000
79 C_2188 118.724 71.553 -4.714 C.2 1 NIL_1    0.000
80 C_1875 109.416 71.738 2.676 C.3 1 NIL_1    0.000
81 C_2174 103.235 73.460 -6.496 C.2 1 NIL_1    0.000
82 C_2178 102.649 71.962 -8.143 C.2 1 NIL_1    0.000
83 C_2194 118.077 69.084 -3.961 C.2 1 NIL_1    0.000
84 C_2190 118.192 70.704 -5.594 C.2 1 NIL_1    0.000
85 C_2176 102.286 72.852 -7.216 C.2 1 NIL_1    0.000
86 C_2192 117.858 69.464 -5.228 C.2 1 NIL_1    0.000
87 O 100.957 73.132 -7.057 O.3 1 NIL_1    0.000
88 O 117.337 68.626 -6.178 O.3 1 NIL_1    0.000
89 C_2273 100.440 73.102 -5.705 C.3 1 NIL_1    0.000
90 C_2269 116.266 67.729 -5.794 C.3 1 NIL_1    0.000
91 H_22691 115.962 67.156 -6.673 H 1 NIL_1    0.000
92 H_22692 115.415 68.309 -5.428 H 1 NIL_1    0.000
93 H_22693 116.607 67.033 -5.024 H 1 NIL_1    0.000
94 H_22731 99.359 73.263 -5.741 H 1 NIL_1    0.000
95 H_22732 100.897 73.894 -5.106 H 1 NIL_1    0.000
96 H_22733 100.648 72.126 -5.258 H 1 NIL_1    0.000
97 H_2190 118.028 71.029 -6.620 H 1 NIL_1    0.000
98 H_2194 117.836 68.079 -3.627 H 1 NIL_1    0.000
99 H_2178 101.892 71.465 -8.746 H 1 NIL_1    0.000
100 H_2174 102.973 74.203 -5.747 H 1 NIL_1    0.000
101 H_18751 108.537 71.103 2.540 H 1 NIL_1    0.000
102 H_18752 109.131 72.784 2.545 H 1 NIL_1    0.000
103 H_18753 109.826 71.591 3.680 H 1 NIL_1    0.000
104 H_2188 118.983 72.561 -5.031 H 1 NIL_1    0.000
105 H_2196 118.778 69.610 -2.056 H 1 NIL_1    0.000
106 H_2180 104.207 70.941 -9.096 H 1 NIL_1    0.000
107 H_2172 105.273 73.684 -6.097 H 1 NIL_1    0.000
108 H_18731 111.987 72.201 2.751 H 1 NIL_1    0.000
109 H_18732 111.431 73.169 1.360 H 1 NIL_1    0.000
110 H_18641 120.339 71.633 -1.926 H 1 NIL_1    0.000
111 H_18642 119.970 72.993 -2.975 H 1 NIL_1    0.000
112 H_18661 106.425 71.016 -8.450 H 1 NIL_1    0.000
113 H_18662 106.815 72.734 -8.431 H 1 NIL_1    0.000
114 H_18701 113.667 71.668 1.279 H 1 NIL_1    0.000
115 H_18702 112.555 70.377 0.937 H 1 NIL_1    0.000
116 H_18351 110.673 71.108 -0.783 H 1 NIL_1    0.000
117 H_18352 111.925 69.954 -1.216 H 1 NIL_1    0.000
118 H_22711 108.747 87.895 -1.857 H 1 NIL_1    0.000
119 H_22712 107.765 86.454 -2.224 H 1 NIL_1    0.000
120 H_22713 108.177 87.618 -3.524 H 1 NIL_1    0.000
121 H_18151 115.591 73.165 1.371 H 1 NIL_1    0.000
122 H_18152 115.555 71.924 0.112 H 1 NIL_1    0.000
123 H_18811 112.252 76.545 1.544 H 1 NIL_1    0.000
124 H_18812 111.154 75.218 2.008 H 1 NIL_1    0.000
125 H_18813 110.954 76.839 2.737 H 1 NIL_1    0.000
126 H_18251 110.334 71.094 -5.182 H 1 NIL_1    0.000
127 H_18252 110.446 72.869 -5.090 H 1 NIL_1    0.000
128 H_18781 111.421 76.111 -7.694 H 1 NIL_1    0.000
129 H_18782 111.652 74.775 -6.536 H 1 NIL_1    0.000
130 H_18783 113.020 75.324 -7.546 H 1 NIL_1    0.000
131 HP 113.651 74.009 0.540 H 1 NIL_1    0.000
132 H_18131 116.461 75.755 0.094 H 1 NIL_1    0.000
133 H_18132 116.775 75.433 -1.633 H 1 NIL_1    0.000
134 H_18271 107.062 72.748 -3.235 H 1 NIL_1    0.000
135 H_18272 108.217 73.974 -3.810 H 1 NIL_1    0.000
136 H_18791 108.376 76.985 0.196 H 1 NIL_1    0.000
137 H_18792 108.626 76.591 1.906 H 1 NIL_1    0.000
138 HP 108.677 71.713 -1.885 H 1 NIL_1    0.000
139 H_2210 107.675 85.475 -4.330 H 1 NIL_1    0.000
140 H_2206 111.701 84.829 -3.276 H 1 NIL_1    0.000
141 H_18761 113.853 77.089 -4.510 H 1 NIL_1    0.000
142 H_18762 114.355 75.778 -5.604 H 1 NIL_1    0.000
143 H_18721 109.453 74.261 1.064 H 1 NIL_1    0.000
144 H_18722 107.736 74.587 1.074 H 1 NIL_1    0.000
145 H_2212 107.709 83.512 -5.658 H 1 NIL_1    0.000
146 H_2204 111.720 82.845 -4.631 H 1 NIL_1    0.000
147 H_18711 112.504 74.328 -4.562 H 1 NIL_1    0.000
148 H_18712 113.864 74.737 -3.561 H 1 NIL_1    0.000
149 H_18291 112.267 75.208 -0.966 H 1 NIL_1    0.000
150 H_18292 112.268 76.923 -1.298 H 1 NIL_1    0.000
151 H_18401 106.740 75.494 -0.637 H 1 NIL_1    0.000
152 H_18402 106.675 74.144 -1.722 H 1 NIL_1    0.000
153 H_18681 108.788 81.745 -6.639 H 1 NIL_1    0.000
154 H_18682 110.529 81.882 -6.792 H 1 NIL_1    0.000
155 HP 109.931 76.467 -1.477 H 1 NIL_1    0.000
156 H_18181 109.880 78.846 -1.813 H 1 NIL_1    0.000
157 H_18182 111.341 78.407 -2.717 H 1 NIL_1    0.000
158 H_18161 107.430 78.552 -3.494 H 1 NIL_1    0.000
159 H_18162 107.934 77.525 -4.863 H 1 NIL_1    0.000
160 HH 118.025 74.015 1.374 H 1 NIL_1    0.000
161 HH 107.914 70.104 -4.041 H 1 NIL_1    0.000
162 HH 110.640 77.449 -5.347 H 1 NIL_1    0.000
@<TRIPOS>BOND
1 1 2 1 
2 3 1 1 
3 4 1 1 
4 5 10 1 
5 5 1 1 
6 5 162 1 
7 6 2 1 
8 7 3 1 
9 7 6 1 
10 7 155 1 
11 8 4 1 
12 9 4 2 
13 10 8 1 
14 11 6 1 
15 12 7 1 
16 13 8 1 
17 13 153 1 
18 13 154 1 
19 14 10 2 
20 15 11 2 
21 16 20 1 
22 16 11 1 
23 16 151 1 
24 16 152 1 
25 17 12 2 
26 18 12 1 
27 19 13 1 
28 20 25 1 
29 21 18 1 
30 21 27 1 
31 21 149 1 
32 21 150 1 
33 22 18 1 
34 22 28 1 
35 22 147 1 
36 22 148 1 
37 23 19 2 
38 23 146 1 
39 24 30 2 
40 24 19 1 
41 24 145 1 
42 25 31 1 
43 26 20 1 
44 26 33 1 
45 26 143 1 
46 26 144 1 
47 27 35 1 
48 28 141 1 
49 28 142 1 
50 29 23 1 
51 29 140 1 
52 30 37 1 
53 30 139 1 
54 31 138 1 
55 32 25 2 
56 33 136 1 
57 33 137 1 
58 34 27 2 
59 36 28 1 
60 37 29 2 
61 38 45 1 
62 38 31 1 
63 38 134 1 
64 38 135 1 
65 39 46 1 
66 39 31 1 
67 39 47 1 
68 40 33 1 
69 41 35 1 
70 41 49 1 
71 41 132 1 
72 41 133 1 
73 42 51 1 
74 42 35 1 
75 42 131 1 
76 43 36 1 
77 43 128 1 
78 43 129 1 
79 43 130 1 
80 44 37 1 
81 45 46 1 
82 46 126 1 
83 46 127 1 
84 48 40 1 
85 48 123 1 
86 48 124 1 
87 48 125 1 
88 50 42 1 
89 50 59 2 
90 51 49 1 
91 52 44 1 
92 52 118 1 
93 52 119 1 
94 52 120 1 
95 53 45 1 
96 54 63 1 
97 54 45 1 
98 54 161 1 
99 55 47 2 
100 56 60 1 
101 56 47 1 
102 56 116 1 
103 56 117 1 
104 57 49 1 
105 58 66 1 
106 58 49 1 
107 58 160 1 
108 60 50 1 
109 61 53 1 
110 62 53 2 
111 63 61 1 
112 64 57 1 
113 65 57 2 
114 66 64 1 
115 67 60 1 
116 67 72 1 
117 67 114 1 
118 67 115 1 
119 68 61 1 
120 68 112 1 
121 68 113 1 
122 69 63 2 
123 70 64 1 
124 70 74 1 
125 71 66 2 
126 73 68 1 
127 73 76 2 
128 73 77 1 
129 74 78 1 
130 75 72 1 
131 77 82 2 
132 79 84 1 
133 79 74 2 
134 79 104 1 
135 80 75 1 
136 81 76 1 
137 82 85 1 
138 83 78 2 
139 84 86 2 
140 84 97 1 
141 85 81 2 
142 86 88 1 
143 86 83 1 
144 87 85 1 
145 89 87 1 
146 89 96 1 
147 90 88 1 
148 91 90 1 
149 92 90 1 
150 93 90 1 
151 94 89 1 
152 95 89 1 
153 98 83 1 
154 99 82 1 
155 100 81 1 
156 101 80 1 
157 102 80 1 
158 103 80 1 
159 105 78 1 
160 106 77 1 
161 107 76 1 
162 108 72 1 
163 109 72 1 
164 110 70 1 
165 111 70 1 
166 121 51 1 
167 122 51 1 
168 156 3 1 
169 157 3 1 
170 158 2 1 
171 159 2 1 
@<TRIPOS>SUBSTRUCTURE
1 NIL_1 1 RESIDUE 1 A NIL 1
