@<TRIPOS>MOLECULE
NIL
162 171 1 0 0
POLYMER
CHARGES


@<TRIPOS>ATOM
1 CQ 93.591 61.23 -22.4018 C.3 1 NIL_1    0.000
2 C_1816 92.614 60.582 -21.417 C.3 1 NIL_1    0.000
3 C_1818 94.939 60.577 -22.074 C.3 1 NIL_1    0.000
4 C_1854 93.630 62.735 -22.249 C.2 1 NIL_1    0.000
5 NH 93.183 61.140 -23.792 N.am 1 NIL_1    0.000
6 N 93.395 60.216 -20.227 N.am 1 NIL_1    0.000
7 CP 94.835 60.267 -20.565 C.3 1 NIL_1    0.000
8 N 93.284 63.285 -23.437 N.am 1 NIL_1    0.000
9 O 93.923 63.350 -21.241 O.2 1 NIL_1    0.000
10 C_1856 93.017 62.340 -24.372 C.2 1 NIL_1    0.000
11 C_1841 92.881 59.802 -19.035 C.2 1 NIL_1    0.000
12 C_1838 95.554 58.966 -20.203 C.2 1 NIL_1    0.000
13 C_1868 93.296 64.732 -23.719 C.3 1 NIL_1    0.000
14 O 92.691 62.523 -25.528 O.2 1 NIL_1    0.000
15 O 93.587 59.630 -18.058 O.2 1 NIL_1    0.000
16 C_1840 91.383 59.531 -18.961 C.3 1 NIL_1    0.000
17 O 95.255 57.931 -20.772 O.2 1 NIL_1    0.000
18 N 96.501 58.962 -19.218 N.am 1 NIL_1    0.000
19 C_1869 92.494 65.611 -22.778 C.2 1 NIL_1    0.000
20 N 91.020 58.163 -18.520 N.am 1 NIL_1    0.000
21 C_1829 97.008 57.689 -18.667 C.3 1 NIL_1    0.000
22 C_1871 96.954 60.147 -18.456 C.3 1 NIL_1    0.000
23 C_2204 93.098 66.559 -22.056 C.2 1 NIL_1    0.000
24 C_2212 91.169 65.469 -22.666 C.2 1 NIL_1    0.000
25 C_1843 91.640 57.045 -19.016 C.2 1 NIL_1    0.000
26 C_1872 89.786 58.190 -17.704 C.3 1 NIL_1    0.000
27 C_1830 97.987 56.936 -19.561 C.2 1 NIL_1    0.000
28 C_1876 98.048 60.939 -19.206 C.3 1 NIL_1    0.000
29 C_2206 92.396 67.347 -21.242 C.2 1 NIL_1    0.000
30 C_2210 90.464 66.255 -21.851 C.2 1 NIL_1    0.000
31 AP 91.173 55.652 -18.604 C.3 1 NIL_1    0.000
32 O 92.547 57.129 -19.823 O.2 1 NIL_1    0.000
33 C_1879 88.548 58.483 -18.571 C.3 1 NIL_1    0.000
34 O 98.412 57.412 -20.596 O.2 1 NIL_1    0.000
35 N 98.384 55.707 -19.133 N.am 1 NIL_1    0.000
36 O 99.297 60.922 -18.473 O.3 1 NIL_1    0.000
37 C_2208 91.072 67.209 -21.128 C.2 1 NIL_1    0.000
38 C_1827 90.388 55.015 -19.761 C.3 1 NIL_1    0.000
39 N 92.269 54.721 -18.251 N.am 1 NIL_1    0.000
40 O 87.366 58.352 -17.756 O.3 1 NIL_1    0.000
41 C_1813 99.368 54.869 -19.833 C.3 1 NIL_1    0.000
42 BP 97.896 55.013 -17.923 C.3 1 NIL_1    0.000
43 C_1878 100.028 59.675 -18.464 C.3 1 NIL_1    0.000
44 O 90.419 68.060 -20.271 O.3 1 NIL_1    0.000
45 AQ 90.675 53.513 -19.648 C.3 1 NIL_1    0.000
46 C_1825 91.995 53.408 -18.860 C.3 1 NIL_1    0.000
47 C_1844 93.307 55.022 -17.416 C.2 1 NIL_1    0.000
48 C_1881 86.168 58.881 -18.362 C.3 1 NIL_1    0.000
49 BQ 99.506 53.545 -19.058 C.3 1 NIL_1    0.000
50 C_1833 96.434 54.580 -18.063 C.2 1 NIL_1    0.000
51 C_1815 98.838 53.809 -17.695 C.3 1 NIL_1    0.000
52 C_2271 88.973 68.131 -20.297 C.3 1 NIL_1    0.000
53 C_1846 90.728 52.844 -21.001 C.2 1 NIL_1    0.000
54 NH 89.563 52.776 -19.064 N.am 1 NIL_1    0.000
55 O 93.438 56.140 -16.955 O.2 1 NIL_1    0.000
56 C_1835 94.284 53.913 -17.036 C.3 1 NIL_1    0.000
57 C_1850 98.899 52.370 -19.796 C.2 1 NIL_1    0.000
58 NH 100.878 53.071 -18.974 N.am 1 NIL_1    0.000
59 O 95.938 54.435 -19.165 O.2 1 NIL_1    0.000
60 N 95.688 54.371 -16.938 N.am 1 NIL_1    0.000
61 N 89.711 51.955 -21.070 N.am 1 NIL_1    0.000
62 O 91.534 53.070 -21.884 O.2 1 NIL_1    0.000
63 C_1848 88.992 51.914 -19.925 C.2 1 NIL_1    0.000
64 N 99.875 51.455 -20.030 N.am 1 NIL_1    0.000
65 O 97.736 52.252 -20.131 O.2 1 NIL_1    0.000
66 C_1852 101.076 51.878 -19.557 C.2 1 NIL_1    0.000
67 C_1870 96.165 54.516 -15.541 C.3 1 NIL_1    0.000
68 C_1866 89.377 51.180 -22.275 C.3 1 NIL_1    0.000
69 O 88.005 51.242 -19.705 O.2 1 NIL_1    0.000
70 C_1864 99.615 50.174 -20.728 C.3 1 NIL_1    0.000
71 O 102.152 51.318 -19.632 O.2 1 NIL_1    0.000
72 C_1873 95.696 55.805 -14.828 C.3 1 NIL_1    0.000
73 C_1867 88.194 51.802 -22.988 C.2 1 NIL_1    0.000
74 C_1865 100.691 49.102 -20.713 C.2 1 NIL_1    0.000
75 O 96.003 56.969 -15.627 O.3 1 NIL_1    0.000
76 C_2172 86.981 51.249 -22.910 C.2 1 NIL_1    0.000
77 C_2180 88.344 52.924 -23.699 C.2 1 NIL_1    0.000
78 C_2196 100.863 48.320 -19.643 C.2 1 NIL_1    0.000
79 C_2188 101.493 48.932 -21.767 C.2 1 NIL_1    0.000
80 C_1875 95.592 58.226 -15.042 C.3 1 NIL_1    0.000
81 C_2174 85.940 51.809 -23.527 C.2 1 NIL_1    0.000
82 C_2178 87.304 53.486 -24.316 C.2 1 NIL_1    0.000
83 C_2194 101.818 47.387 -19.624 C.2 1 NIL_1    0.000
84 C_2190 102.447 48.000 -21.751 C.2 1 NIL_1    0.000
85 C_2176 86.085 52.931 -24.236 C.2 1 NIL_1    0.000
86 C_2192 102.622 47.217 -20.685 C.2 1 NIL_1    0.000
87 O 84.963 53.441 -24.840 O.3 1 NIL_1    0.000
88 O 103.631 46.287 -20.750 O.3 1 NIL_1    0.000
89 C_2273 85.046 54.670 -25.600 C.3 1 NIL_1    0.000
90 C_2269 103.780 45.306 -19.696 C.3 1 NIL_1    0.000
91 H_22691 104.613 44.646 -19.953 H 1 NIL_1    0.000
92 H_22692 102.863 44.716 -19.611 H 1 NIL_1    0.000
93 H_22693 103.998 45.811 -18.751 H 1 NIL_1    0.000
94 H_22731 84.049 54.915 -25.973 H 1 NIL_1    0.000
95 H_22732 85.727 54.537 -26.446 H 1 NIL_1    0.000
96 H_22733 85.398 55.478 -24.953 H 1 NIL_1    0.000
97 H_2190 103.090 47.882 -22.620 H 1 NIL_1    0.000
98 H_2194 101.924 46.779 -18.730 H 1 NIL_1    0.000
99 H_2178 87.476 54.401 -24.878 H 1 NIL_1    0.000
100 H_2174 84.960 51.344 -23.445 H 1 NIL_1    0.000
101 H_18751 96.213 58.437 -14.166 H 1 NIL_1    0.000
102 H_18752 94.538 58.164 -14.754 H 1 NIL_1    0.000
103 H_18753 95.720 59.023 -15.779 H 1 NIL_1    0.000
104 H_2188 101.375 49.557 -22.649 H 1 NIL_1    0.000
105 H_2196 100.223 48.446 -18.772 H 1 NIL_1    0.000
106 H_2180 89.325 53.389 -23.773 H 1 NIL_1    0.000
107 H_2172 86.832 50.337 -22.336 H 1 NIL_1    0.000
108 H_18731 94.616 55.770 -14.661 H 1 NIL_1    0.000
109 H_18732 96.200 55.896 -13.863 H 1 NIL_1    0.000
110 H_18641 99.372 50.413 -21.768 H 1 NIL_1    0.000
111 H_18642 98.711 49.744 -20.288 H 1 NIL_1    0.000
112 H_18661 89.155 50.149 -21.991 H 1 NIL_1    0.000
113 H_18662 90.241 51.164 -22.944 H 1 NIL_1    0.000
114 H_18701 97.254 54.482 -15.502 H 1 NIL_1    0.000
115 H_18702 95.812 53.657 -14.965 H 1 NIL_1    0.000
116 H_18351 93.943 53.507 -16.079 H 1 NIL_1    0.000
117 H_18352 94.240 53.108 -17.771 H 1 NIL_1    0.000
118 H_22711 88.637 68.366 -21.311 H 1 NIL_1    0.000
119 H_22712 88.649 68.923 -19.616 H 1 NIL_1    0.000
120 H_22713 88.550 67.178 -19.969 H 1 NIL_1    0.000
121 H_18151 99.600 54.100 -16.967 H 1 NIL_1    0.000
122 H_18152 98.318 52.932 -17.302 H 1 NIL_1    0.000
123 H_18811 85.319 58.676 -17.705 H 1 NIL_1    0.000
124 H_18812 86.006 58.407 -19.336 H 1 NIL_1    0.000
125 H_18813 86.281 59.961 -18.487 H 1 NIL_1    0.000
126 H_18251 91.915 52.647 -18.079 H 1 NIL_1    0.000
127 H_18252 92.821 53.156 -19.534 H 1 NIL_1    0.000
128 H_18781 100.228 59.362 -19.492 H 1 NIL_1    0.000
129 H_18782 99.448 58.909 -17.946 H 1 NIL_1    0.000
130 H_18783 100.973 59.825 -17.937 H 1 NIL_1    0.000
131 HP 97.968 55.698 -17.077 H 1 NIL_1    0.000
132 H_18131 100.323 55.402 -19.839 H 1 NIL_1    0.000
133 H_18132 99.049 54.691 -20.864 H 1 NIL_1    0.000
134 H_18271 89.322 55.247 -19.700 H 1 NIL_1    0.000
135 H_18272 90.761 55.388 -20.719 H 1 NIL_1    0.000
136 H_18791 88.605 59.505 -18.957 H 1 NIL_1    0.000
137 H_18792 88.487 57.780 -19.408 H 1 NIL_1    0.000
138 HP 90.536 55.691 -17.724 H 1 NIL_1    0.000
139 H_2210 89.390 66.103 -21.792 H 1 NIL_1    0.000
140 H_2206 92.911 68.114 -20.667 H 1 NIL_1    0.000
141 H_18761 98.212 60.535 -20.210 H 1 NIL_1    0.000
142 H_18762 97.729 61.980 -19.294 H 1 NIL_1    0.000
143 H_18721 89.878 58.982 -16.954 H 1 NIL_1    0.000
144 H_18722 89.632 57.264 -17.154 H 1 NIL_1    0.000
145 H_2212 90.656 64.706 -23.246 H 1 NIL_1    0.000
146 H_2204 94.174 66.700 -22.132 H 1 NIL_1    0.000
147 H_18711 97.333 59.849 -17.475 H 1 NIL_1    0.000
148 H_18712 96.102 60.800 -18.257 H 1 NIL_1    0.000
149 H_18291 96.143 57.049 -18.486 H 1 NIL_1    0.000
150 H_18292 97.510 57.846 -17.711 H 1 NIL_1    0.000
151 H_18401 90.972 60.276 -18.274 H 1 NIL_1    0.000
152 H_18402 90.913 59.683 -19.933 H 1 NIL_1    0.000
153 H_18681 92.919 64.893 -24.733 H 1 NIL_1    0.000
154 H_18682 94.342 65.051 -23.716 H 1 NIL_1    0.000
155 HP 95.267 61.115 -20.036 H 1 NIL_1    0.000
156 H_18181 95.788 61.227 -22.301 H 1 NIL_1    0.000
157 H_18182 95.045 59.657 -22.655 H 1 NIL_1    0.000
158 H_18161 91.806 61.270 -21.157 H 1 NIL_1    0.000
159 H_18162 92.198 59.667 -21.849 H 1 NIL_1    0.000
160 HH 101.615 53.615 -18.551 H 1 NIL_1    0.000
161 HH 89.210 52.960 -18.137 H 1 NIL_1    0.000
162 HH 93.037 60.259 -24.261 H 1 NIL_1    0.000
@<TRIPOS>BOND
1 1 2 1 
2 3 1 1 
3 4 1 1 
4 5 10 1 
5 5 1 1 
6 5 162 1 
7 6 2 1 
8 7 3 1 
9 7 6 1 
10 7 155 1 
11 8 4 1 
12 9 4 2 
13 10 8 1 
14 11 6 1 
15 12 7 1 
16 13 8 1 
17 13 153 1 
18 13 154 1 
19 14 10 2 
20 15 11 2 
21 16 20 1 
22 16 11 1 
23 16 151 1 
24 16 152 1 
25 17 12 2 
26 18 12 1 
27 19 13 1 
28 20 25 1 
29 21 18 1 
30 21 27 1 
31 21 149 1 
32 21 150 1 
33 22 18 1 
34 22 28 1 
35 22 147 1 
36 22 148 1 
37 23 19 2 
38 23 146 1 
39 24 30 2 
40 24 19 1 
41 24 145 1 
42 25 31 1 
43 26 20 1 
44 26 33 1 
45 26 143 1 
46 26 144 1 
47 27 35 1 
48 28 141 1 
49 28 142 1 
50 29 23 1 
51 29 140 1 
52 30 37 1 
53 30 139 1 
54 31 138 1 
55 32 25 2 
56 33 136 1 
57 33 137 1 
58 34 27 2 
59 36 28 1 
60 37 29 2 
61 38 45 1 
62 38 31 1 
63 38 134 1 
64 38 135 1 
65 39 46 1 
66 39 31 1 
67 39 47 1 
68 40 33 1 
69 41 35 1 
70 41 49 1 
71 41 132 1 
72 41 133 1 
73 42 51 1 
74 42 35 1 
75 42 131 1 
76 43 36 1 
77 43 128 1 
78 43 129 1 
79 43 130 1 
80 44 37 1 
81 45 46 1 
82 46 126 1 
83 46 127 1 
84 48 40 1 
85 48 123 1 
86 48 124 1 
87 48 125 1 
88 50 42 1 
89 50 59 2 
90 51 49 1 
91 52 44 1 
92 52 118 1 
93 52 119 1 
94 52 120 1 
95 53 45 1 
96 54 63 1 
97 54 45 1 
98 54 161 1 
99 55 47 2 
100 56 60 1 
101 56 47 1 
102 56 116 1 
103 56 117 1 
104 57 49 1 
105 58 66 1 
106 58 49 1 
107 58 160 1 
108 60 50 1 
109 61 53 1 
110 62 53 2 
111 63 61 1 
112 64 57 1 
113 65 57 2 
114 66 64 1 
115 67 60 1 
116 67 72 1 
117 67 114 1 
118 67 115 1 
119 68 61 1 
120 68 112 1 
121 68 113 1 
122 69 63 2 
123 70 64 1 
124 70 74 1 
125 71 66 2 
126 73 68 1 
127 73 76 2 
128 73 77 1 
129 74 78 1 
130 75 72 1 
131 77 82 2 
132 79 84 1 
133 79 74 2 
134 79 104 1 
135 80 75 1 
136 81 76 1 
137 82 85 1 
138 83 78 2 
139 84 86 2 
140 84 97 1 
141 85 81 2 
142 86 88 1 
143 86 83 1 
144 87 85 1 
145 89 87 1 
146 89 96 1 
147 90 88 1 
148 91 90 1 
149 92 90 1 
150 93 90 1 
151 94 89 1 
152 95 89 1 
153 98 83 1 
154 99 82 1 
155 100 81 1 
156 101 80 1 
157 102 80 1 
158 103 80 1 
159 105 78 1 
160 106 77 1 
161 107 76 1 
162 108 72 1 
163 109 72 1 
164 110 70 1 
165 111 70 1 
166 121 51 1 
167 122 51 1 
168 156 3 1 
169 157 3 1 
170 158 2 1 
171 159 2 1 
@<TRIPOS>SUBSTRUCTURE
1 NIL_1 1 RESIDUE 1 A NIL 1
