@<TRIPOS>MOLECULE
NIL
162 171 1 0 0
POLYMER
CHARGES


@<TRIPOS>ATOM
1 CQ 102.896 73.4541 -10.7272 C.3 1 NIL_1    0.000
2 C_1816 102.138 72.258 -11.329 C.3 1 NIL_1    0.000
3 C_1818 104.212 72.848 -10.228 C.3 1 NIL_1    0.000
4 C_1854 102.133 74.130 -9.606 C.2 1 NIL_1    0.000
5 NH 103.077 74.596 -11.606 N.am 1 NIL_1    0.000
6 N 102.618 71.052 -10.631 N.am 1 NIL_1    0.000
7 CP 103.844 71.399 -9.864 C.3 1 NIL_1    0.000
8 N 102.041 75.454 -9.891 N.am 1 NIL_1    0.000
9 O 101.694 73.589 -8.610 O.2 1 NIL_1    0.000
10 C_1856 102.622 75.748 -11.083 C.2 1 NIL_1    0.000
11 C_1841 101.946 69.867 -10.649 C.2 1 NIL_1    0.000
12 C_1838 105.087 70.499 -9.952 C.2 1 NIL_1    0.000
13 C_1868 101.503 76.450 -8.937 C.3 1 NIL_1    0.000
14 O 102.741 76.841 -11.597 O.2 1 NIL_1    0.000
15 O 101.032 69.674 -11.427 O.2 1 NIL_1    0.000
16 C_1840 102.365 68.818 -9.631 C.3 1 NIL_1    0.000
17 O 105.822 70.451 -8.987 O.2 1 NIL_1    0.000
18 N 105.325 69.710 -11.046 N.am 1 NIL_1    0.000
19 C_1869 100.817 77.693 -9.481 C.2 1 NIL_1    0.000
20 N 101.690 67.508 -9.737 N.am 1 NIL_1    0.000
21 C_1829 105.796 68.306 -10.916 C.3 1 NIL_1    0.000
22 C_1871 104.820 69.993 -12.412 C.3 1 NIL_1    0.000
23 C_2204 99.556 77.638 -9.915 C.2 1 NIL_1    0.000
24 C_2212 101.452 78.870 -9.505 C.2 1 NIL_1    0.000
25 C_1843 102.113 66.583 -10.654 C.2 1 NIL_1    0.000
26 C_1872 100.774 67.247 -8.599 C.3 1 NIL_1    0.000
27 C_1830 106.873 67.960 -9.896 C.2 1 NIL_1    0.000
28 C_1876 105.892 69.952 -13.527 C.3 1 NIL_1    0.000
29 C_2206 98.944 78.734 -10.366 C.2 1 NIL_1    0.000
30 C_2210 100.842 79.968 -9.958 C.2 1 NIL_1    0.000
31 AP 101.720 65.118 -10.468 C.3 1 NIL_1    0.000
32 O 102.765 66.921 -11.625 O.2 1 NIL_1    0.000
33 C_1879 99.746 68.372 -8.312 C.3 1 NIL_1    0.000
34 O 107.992 68.423 -10.011 O.2 1 NIL_1    0.000
35 N 106.561 67.043 -8.929 N.am 1 NIL_1    0.000
36 O 106.981 70.842 -13.194 O.3 1 NIL_1    0.000
37 C_2208 99.575 79.910 -10.397 C.2 1 NIL_1    0.000
38 C_1827 100.366 64.873 -11.170 C.3 1 NIL_1    0.000
39 N 102.675 64.109 -11.005 N.am 1 NIL_1    0.000
40 O 98.835 68.522 -9.424 O.3 1 NIL_1    0.000
41 C_1813 107.605 66.395 -8.114 C.3 1 NIL_1    0.000
42 BP 105.443 67.272 -7.984 C.3 1 NIL_1    0.000
43 C_1878 106.794 72.224 -13.571 C.3 1 NIL_1    0.000
44 O 98.873 80.991 -10.872 O.3 1 NIL_1    0.000
45 AQ 100.445 63.430 -11.674 C.3 1 NIL_1    0.000
46 C_1825 101.942 63.156 -11.851 C.3 1 NIL_1    0.000
47 C_1844 104.010 63.958 -10.757 C.2 1 NIL_1    0.000
48 C_1881 97.735 67.587 -9.463 C.3 1 NIL_1    0.000
49 BQ 107.501 67.005 -6.703 C.3 1 NIL_1    0.000
50 C_1833 104.526 66.087 -7.589 C.2 1 NIL_1    0.000
51 C_1815 106.196 67.822 -6.742 C.3 1 NIL_1    0.000
52 C_2271 99.563 82.233 -11.155 C.3 1 NIL_1    0.000
53 C_1846 99.655 63.171 -12.932 C.2 1 NIL_1    0.000
54 NH 99.797 62.478 -10.785 N.am 1 NIL_1    0.000
55 O 104.631 63.051 -11.277 O.2 1 NIL_1    0.000
56 C_1835 104.743 64.897 -9.809 C.3 1 NIL_1    0.000
57 C_1850 107.526 65.947 -5.620 C.2 1 NIL_1    0.000
58 NH 108.679 67.765 -6.308 N.am 1 NIL_1    0.000
59 O 103.985 66.119 -6.500 O.2 1 NIL_1    0.000
60 N 104.309 64.999 -8.398 N.am 1 NIL_1    0.000
61 N 98.753 62.195 -12.670 N.am 1 NIL_1    0.000
62 O 99.809 63.730 -14.002 O.2 1 NIL_1    0.000
63 C_1848 98.821 61.775 -11.383 C.2 1 NIL_1    0.000
64 N 108.619 66.155 -4.850 N.am 1 NIL_1    0.000
65 O 106.711 65.061 -5.459 O.2 1 NIL_1    0.000
66 C_1852 109.322 67.240 -5.250 C.2 1 NIL_1    0.000
67 C_1870 103.719 63.748 -7.853 C.3 1 NIL_1    0.000
68 C_1866 97.832 61.634 -13.674 C.3 1 NIL_1    0.000
69 O 98.136 60.924 -10.852 O.2 1 NIL_1    0.000
70 C_1864 109.018 65.286 -3.728 C.3 1 NIL_1    0.000
71 O 110.343 67.672 -4.755 O.2 1 NIL_1    0.000
72 C_1873 104.796 62.712 -7.478 C.3 1 NIL_1    0.000
73 C_1867 96.981 62.692 -14.348 C.2 1 NIL_1    0.000
74 C_1865 109.817 64.096 -4.220 C.2 1 NIL_1    0.000
75 O 104.205 61.608 -6.750 O.3 1 NIL_1    0.000
76 C_2172 97.067 62.885 -15.667 C.2 1 NIL_1    0.000
77 C_2180 96.146 63.456 -13.639 C.2 1 NIL_1    0.000
78 C_2196 111.151 64.147 -4.274 C.2 1 NIL_1    0.000
79 C_2188 109.203 62.977 -4.616 C.2 1 NIL_1    0.000
80 C_1875 103.364 60.716 -7.515 C.3 1 NIL_1    0.000
81 C_2174 96.335 63.824 -16.264 C.2 1 NIL_1    0.000
82 C_2178 95.413 64.399 -14.235 C.2 1 NIL_1    0.000
83 C_2194 111.854 63.105 -4.718 C.2 1 NIL_1    0.000
84 C_2190 109.903 61.933 -5.063 C.2 1 NIL_1    0.000
85 C_2176 95.505 64.596 -15.558 C.2 1 NIL_1    0.000
86 C_2192 111.242 61.986 -5.119 C.2 1 NIL_1    0.000
87 O 94.791 65.546 -16.243 O.3 1 NIL_1    0.000
88 O 112.037 60.959 -5.567 O.3 1 NIL_1    0.000
89 C_2273 94.214 66.656 -15.514 C.3 1 NIL_1    0.000
90 C_2269 111.429 59.729 -6.031 C.3 1 NIL_1    0.000
91 H_22691 112.221 59.048 -6.354 H 1 NIL_1    0.000
92 H_22692 110.769 59.943 -6.876 H 1 NIL_1    0.000
93 H_22693 110.865 59.267 -5.216 H 1 NIL_1    0.000
94 H_22731 93.416 66.294 -14.860 H 1 NIL_1    0.000
95 H_22732 93.796 67.364 -16.234 H 1 NIL_1    0.000
96 H_22733 94.992 67.152 -14.926 H 1 NIL_1    0.000
97 H_2190 109.356 61.049 -5.378 H 1 NIL_1    0.000
98 H_2194 112.938 63.172 -4.756 H 1 NIL_1    0.000
99 H_2178 94.746 64.996 -13.619 H 1 NIL_1    0.000
100 H_2174 96.426 63.966 -17.339 H 1 NIL_1    0.000
101 H_18751 103.062 59.882 -6.875 H 1 NIL_1    0.000
102 H_18752 103.928 60.336 -8.371 H 1 NIL_1    0.000
103 H_18753 102.475 61.247 -7.862 H 1 NIL_1    0.000
104 H_2188 108.118 62.910 -4.581 H 1 NIL_1    0.000
105 H_2196 111.673 65.047 -3.957 H 1 NIL_1    0.000
106 H_2180 96.062 63.317 -12.564 H 1 NIL_1    0.000
107 H_2172 97.745 62.278 -16.264 H 1 NIL_1    0.000
108 H_18731 105.292 62.332 -8.375 H 1 NIL_1    0.000
109 H_18732 105.540 63.181 -6.831 H 1 NIL_1    0.000
110 H_18641 108.122 64.944 -3.204 H 1 NIL_1    0.000
111 H_18642 109.613 65.869 -3.017 H 1 NIL_1    0.000
112 H_18661 97.175 60.897 -13.204 H 1 NIL_1    0.000
113 H_18662 98.434 61.109 -14.419 H 1 NIL_1    0.000
114 H_18701 103.025 63.307 -8.568 H 1 NIL_1    0.000
115 H_18702 103.129 63.973 -6.962 H 1 NIL_1    0.000
116 H_18351 105.801 64.619 -9.828 H 1 NIL_1    0.000
117 H_18352 104.637 65.869 -10.266 H 1 NIL_1    0.000
118 H_22711 98.850 82.931 -11.604 H 1 NIL_1    0.000
119 H_22712 100.379 82.048 -11.859 H 1 NIL_1    0.000
120 H_22713 99.951 82.662 -10.227 H 1 NIL_1    0.000
121 H_18151 106.437 68.873 -6.919 H 1 NIL_1    0.000
122 H_18152 105.637 67.774 -5.805 H 1 NIL_1    0.000
123 H_18811 98.116 66.567 -9.535 H 1 NIL_1    0.000
124 H_18812 97.111 67.808 -10.333 H 1 NIL_1    0.000
125 H_18813 97.143 67.697 -8.550 H 1 NIL_1    0.000
126 H_18251 102.178 62.127 -11.560 H 1 NIL_1    0.000
127 H_18252 102.238 63.315 -12.891 H 1 NIL_1    0.000
128 H_18781 105.813 72.570 -13.238 H 1 NIL_1    0.000
129 H_18782 106.867 72.309 -14.659 H 1 NIL_1    0.000
130 H_18783 107.575 72.830 -13.103 H 1 NIL_1    0.000
131 HP 104.783 68.048 -8.366 H 1 NIL_1    0.000
132 H_18131 108.600 66.546 -8.539 H 1 NIL_1    0.000
133 H_18132 107.398 65.321 -8.080 H 1 NIL_1    0.000
134 H_18271 99.520 65.023 -10.497 H 1 NIL_1    0.000
135 H_18272 100.256 65.555 -12.017 H 1 NIL_1    0.000
136 H_18791 99.174 68.137 -7.410 H 1 NIL_1    0.000
137 H_18792 100.244 69.331 -8.150 H 1 NIL_1    0.000
138 HP 101.618 64.911 -9.401 H 1 NIL_1    0.000
139 H_2210 101.397 80.903 -9.954 H 1 NIL_1    0.000
140 H_2206 97.914 78.666 -10.711 H 1 NIL_1    0.000
141 H_18761 106.291 68.941 -13.635 H 1 NIL_1    0.000
142 H_18762 105.455 70.250 -14.485 H 1 NIL_1    0.000
143 H_18721 101.387 67.090 -7.708 H 1 NIL_1    0.000
144 H_18722 100.208 66.332 -8.769 H 1 NIL_1    0.000
145 H_2212 102.477 78.941 -9.150 H 1 NIL_1    0.000
146 H_2204 99.016 76.694 -9.897 H 1 NIL_1    0.000
147 H_18711 104.380 70.989 -12.443 H 1 NIL_1    0.000
148 H_18712 104.034 69.272 -12.650 H 1 NIL_1    0.000
149 H_18291 106.184 67.941 -11.866 H 1 NIL_1    0.000
150 H_18292 104.925 67.708 -10.696 H 1 NIL_1    0.000
151 H_18401 103.419 68.639 -9.761 H 1 NIL_1    0.000
152 H_18402 102.245 69.250 -8.634 H 1 NIL_1    0.000
153 H_18681 102.332 76.761 -8.296 H 1 NIL_1    0.000
154 H_18682 100.785 75.941 -8.288 H 1 NIL_1    0.000
155 HP 103.552 71.390 -8.809 H 1 NIL_1    0.000
156 H_18181 104.634 73.390 -9.379 H 1 NIL_1    0.000
157 H_18182 104.943 72.852 -11.038 H 1 NIL_1    0.000
158 H_18161 101.058 72.374 -11.203 H 1 NIL_1    0.000
159 H_18162 102.371 72.159 -12.393 H 1 NIL_1    0.000
160 HH 108.988 68.590 -6.801 H 1 NIL_1    0.000
161 HH 100.059 62.373 -9.816 H 1 NIL_1    0.000
162 HH 103.604 74.538 -12.464 H 1 NIL_1    0.000
@<TRIPOS>BOND
1 1 2 1 
2 3 1 1 
3 4 1 1 
4 5 10 1 
5 5 1 1 
6 5 162 1 
7 6 2 1 
8 7 3 1 
9 7 6 1 
10 7 155 1 
11 8 4 1 
12 9 4 2 
13 10 8 1 
14 11 6 1 
15 12 7 1 
16 13 8 1 
17 13 153 1 
18 13 154 1 
19 14 10 2 
20 15 11 2 
21 16 20 1 
22 16 11 1 
23 16 151 1 
24 16 152 1 
25 17 12 2 
26 18 12 1 
27 19 13 1 
28 20 25 1 
29 21 18 1 
30 21 27 1 
31 21 149 1 
32 21 150 1 
33 22 18 1 
34 22 28 1 
35 22 147 1 
36 22 148 1 
37 23 19 2 
38 23 146 1 
39 24 30 2 
40 24 19 1 
41 24 145 1 
42 25 31 1 
43 26 20 1 
44 26 33 1 
45 26 143 1 
46 26 144 1 
47 27 35 1 
48 28 141 1 
49 28 142 1 
50 29 23 1 
51 29 140 1 
52 30 37 1 
53 30 139 1 
54 31 138 1 
55 32 25 2 
56 33 136 1 
57 33 137 1 
58 34 27 2 
59 36 28 1 
60 37 29 2 
61 38 45 1 
62 38 31 1 
63 38 134 1 
64 38 135 1 
65 39 46 1 
66 39 31 1 
67 39 47 1 
68 40 33 1 
69 41 35 1 
70 41 49 1 
71 41 132 1 
72 41 133 1 
73 42 51 1 
74 42 35 1 
75 42 131 1 
76 43 36 1 
77 43 128 1 
78 43 129 1 
79 43 130 1 
80 44 37 1 
81 45 46 1 
82 46 126 1 
83 46 127 1 
84 48 40 1 
85 48 123 1 
86 48 124 1 
87 48 125 1 
88 50 42 1 
89 50 59 2 
90 51 49 1 
91 52 44 1 
92 52 118 1 
93 52 119 1 
94 52 120 1 
95 53 45 1 
96 54 63 1 
97 54 45 1 
98 54 161 1 
99 55 47 2 
100 56 60 1 
101 56 47 1 
102 56 116 1 
103 56 117 1 
104 57 49 1 
105 58 66 1 
106 58 49 1 
107 58 160 1 
108 60 50 1 
109 61 53 1 
110 62 53 2 
111 63 61 1 
112 64 57 1 
113 65 57 2 
114 66 64 1 
115 67 60 1 
116 67 72 1 
117 67 114 1 
118 67 115 1 
119 68 61 1 
120 68 112 1 
121 68 113 1 
122 69 63 2 
123 70 64 1 
124 70 74 1 
125 71 66 2 
126 73 68 1 
127 73 76 2 
128 73 77 1 
129 74 78 1 
130 75 72 1 
131 77 82 2 
132 79 84 1 
133 79 74 2 
134 79 104 1 
135 80 75 1 
136 81 76 1 
137 82 85 1 
138 83 78 2 
139 84 86 2 
140 84 97 1 
141 85 81 2 
142 86 88 1 
143 86 83 1 
144 87 85 1 
145 89 87 1 
146 89 96 1 
147 90 88 1 
148 91 90 1 
149 92 90 1 
150 93 90 1 
151 94 89 1 
152 95 89 1 
153 98 83 1 
154 99 82 1 
155 100 81 1 
156 101 80 1 
157 102 80 1 
158 103 80 1 
159 105 78 1 
160 106 77 1 
161 107 76 1 
162 108 72 1 
163 109 72 1 
164 110 70 1 
165 111 70 1 
166 121 51 1 
167 122 51 1 
168 156 3 1 
169 157 3 1 
170 158 2 1 
171 159 2 1 
@<TRIPOS>SUBSTRUCTURE
1 NIL_1 1 RESIDUE 1 A NIL 1
