@<TRIPOS>MOLECULE
NIL
162 171 1 0 0
POLYMER
CHARGES


@<TRIPOS>ATOM
1 CQ 93.3299 60.6242 -23.8273 C.3 1 NIL_1    0.000
2 C_1816 92.250 59.940 -22.972 C.3 1 NIL_1    0.000
3 C_1818 94.627 60.532 -23.011 C.3 1 NIL_1    0.000
4 C_1854 92.944 62.033 -24.191 C.2 1 NIL_1    0.000
5 NH 93.428 60.052 -25.163 N.am 1 NIL_1    0.000
6 N 92.938 59.120 -21.965 N.am 1 NIL_1    0.000
7 CP 94.391 59.354 -22.054 C.3 1 NIL_1    0.000
8 N 92.766 62.089 -25.532 N.am 1 NIL_1    0.000
9 O 92.798 62.957 -23.414 O.2 1 NIL_1    0.000
10 C_1856 93.063 60.910 -26.131 C.2 1 NIL_1    0.000
11 C_1841 92.371 58.201 -21.133 C.2 1 NIL_1    0.000
12 C_1838 95.096 58.093 -22.530 C.2 1 NIL_1    0.000
13 C_1868 92.205 63.256 -26.232 C.3 1 NIL_1    0.000
14 O 93.004 60.654 -27.317 O.2 1 NIL_1    0.000
15 O 93.067 57.461 -20.464 O.2 1 NIL_1    0.000
16 C_1840 90.851 58.167 -21.011 C.3 1 NIL_1    0.000
17 O 94.652 57.465 -23.477 O.2 1 NIL_1    0.000
18 N 96.170 57.641 -21.825 N.am 1 NIL_1    0.000
19 C_1869 90.837 63.579 -25.659 C.2 1 NIL_1    0.000
20 N 90.258 56.805 -20.975 N.am 1 NIL_1    0.000
21 C_1829 96.387 56.186 -21.765 C.3 1 NIL_1    0.000
22 C_1871 96.936 58.470 -20.860 C.3 1 NIL_1    0.000
23 C_2204 90.645 64.685 -24.935 C.2 1 NIL_1    0.000
24 C_2212 89.811 62.741 -25.835 C.2 1 NIL_1    0.000
25 C_1843 90.392 55.985 -19.881 C.2 1 NIL_1    0.000
26 C_1872 89.418 56.559 -22.173 C.3 1 NIL_1    0.000
27 C_1830 97.103 55.596 -22.971 C.2 1 NIL_1    0.000
28 C_1876 98.235 57.873 -20.277 C.3 1 NIL_1    0.000
29 C_2206 89.455 64.948 -24.391 C.2 1 NIL_1    0.000
30 C_2210 88.621 63.002 -25.293 C.2 1 NIL_1    0.000
31 AP 89.931 54.520 -19.867 C.3 1 NIL_1    0.000
32 O 90.915 56.411 -18.868 O.2 1 NIL_1    0.000
33 C_1879 87.992 57.157 -22.083 C.3 1 NIL_1    0.000
34 O 97.777 56.279 -23.718 O.2 1 NIL_1    0.000
35 N 97.002 54.251 -23.140 N.am 1 NIL_1    0.000
36 O 98.950 58.918 -19.585 O.3 1 NIL_1    0.000
37 C_2208 88.426 64.103 -24.562 C.2 1 NIL_1    0.000
38 C_1827 88.449 54.426 -19.463 C.3 1 NIL_1    0.000
39 N 90.127 53.679 -21.072 N.am 1 NIL_1    0.000
40 O 87.985 58.582 -22.340 O.3 1 NIL_1    0.000
41 C_1813 97.882 53.465 -24.015 C.3 1 NIL_1    0.000
42 BP 96.131 53.327 -22.371 C.3 1 NIL_1    0.000
43 C_1878 99.968 58.451 -18.675 C.3 1 NIL_1    0.000
44 O 87.174 64.294 -24.031 O.3 1 NIL_1    0.000
45 AQ 87.924 53.180 -20.192 C.3 1 NIL_1    0.000
46 C_1825 88.859 53.004 -21.397 C.3 1 NIL_1    0.000
47 C_1844 91.283 53.452 -21.753 C.2 1 NIL_1    0.000
48 C_1881 88.151 58.983 -23.718 C.3 1 NIL_1    0.000
49 BQ 97.936 52.079 -23.356 C.3 1 NIL_1    0.000
50 C_1833 94.637 53.631 -22.536 C.2 1 NIL_1    0.000
51 C_1815 96.513 51.897 -22.810 C.3 1 NIL_1    0.000
52 C_2271 86.930 65.426 -23.161 C.3 1 NIL_1    0.000
53 C_1846 86.468 53.292 -20.575 C.2 1 NIL_1    0.000
54 NH 87.856 51.998 -19.346 N.am 1 NIL_1    0.000
55 O 91.290 52.749 -22.747 O.2 1 NIL_1    0.000
56 C_1835 92.562 54.100 -21.247 C.3 1 NIL_1    0.000
57 C_1850 98.432 50.962 -24.242 C.2 1 NIL_1    0.000
58 NH 98.961 52.031 -22.324 N.am 1 NIL_1    0.000
59 O 94.218 54.201 -23.527 O.2 1 NIL_1    0.000
60 N 93.794 53.323 -21.512 N.am 1 NIL_1    0.000
61 N 85.796 52.271 -19.993 N.am 1 NIL_1    0.000
62 O 85.981 54.161 -21.272 O.2 1 NIL_1    0.000
63 C_1848 86.614 51.492 -19.243 C.2 1 NIL_1    0.000
64 N 99.576 50.467 -23.702 N.am 1 NIL_1    0.000
65 O 97.902 50.571 -25.264 O.2 1 NIL_1    0.000
66 C_1852 99.922 51.128 -22.570 C.2 1 NIL_1    0.000
67 C_1870 94.039 52.274 -20.501 C.3 1 NIL_1    0.000
68 C_1866 84.340 52.064 -20.106 C.3 1 NIL_1    0.000
69 O 86.302 50.517 -18.589 O.2 1 NIL_1    0.000
70 C_1864 100.385 49.401 -24.330 C.3 1 NIL_1    0.000
71 O 100.916 50.967 -21.889 O.2 1 NIL_1    0.000
72 C_1873 93.328 50.956 -20.871 C.3 1 NIL_1    0.000
73 C_1867 83.808 52.061 -21.527 C.2 1 NIL_1    0.000
74 C_1865 101.078 48.417 -23.400 C.2 1 NIL_1    0.000
75 O 94.075 49.823 -20.370 O.3 1 NIL_1    0.000
76 C_2172 83.091 53.091 -21.985 C.2 1 NIL_1    0.000
77 C_2180 84.043 51.031 -22.344 C.2 1 NIL_1    0.000
78 C_2196 100.382 47.487 -22.739 C.2 1 NIL_1    0.000
79 C_2188 102.404 48.459 -23.232 C.2 1 NIL_1    0.000
80 C_1875 94.093 49.652 -18.937 C.3 1 NIL_1    0.000
81 C_2174 82.620 53.090 -23.233 C.2 1 NIL_1    0.000
82 C_2178 83.571 51.027 -23.594 C.2 1 NIL_1    0.000
83 C_2194 100.997 46.627 -21.925 C.2 1 NIL_1    0.000
84 C_2190 103.021 47.601 -22.418 C.2 1 NIL_1    0.000
85 C_2176 82.851 52.062 -24.052 C.2 1 NIL_1    0.000
86 C_2192 102.321 46.673 -21.749 C.2 1 NIL_1    0.000
87 O 82.328 52.140 -25.321 O.3 1 NIL_1    0.000
88 O 102.886 45.754 -20.900 O.3 1 NIL_1    0.000
89 C_2273 82.570 51.076 -26.272 C.3 1 NIL_1    0.000
90 C_2269 104.199 46.017 -20.344 C.3 1 NIL_1    0.000
91 H_22691 104.453 45.218 -19.643 H 1 NIL_1    0.000
92 H_22692 104.184 46.973 -19.814 H 1 NIL_1    0.000
93 H_22693 104.944 46.038 -21.144 H 1 NIL_1    0.000
94 H_22731 82.129 50.146 -25.903 H 1 NIL_1    0.000
95 H_22732 83.646 50.954 -26.421 H 1 NIL_1    0.000
96 H_22733 82.102 51.347 -27.222 H 1 NIL_1    0.000
97 H_2190 104.100 47.674 -22.318 H 1 NIL_1    0.000
98 H_2194 100.409 45.879 -21.396 H 1 NIL_1    0.000
99 H_2178 83.786 50.165 -24.221 H 1 NIL_1    0.000
100 H_2174 82.040 53.942 -23.583 H 1 NIL_1    0.000
101 H_18751 94.680 48.761 -18.696 H 1 NIL_1    0.000
102 H_18752 93.066 49.528 -18.579 H 1 NIL_1    0.000
103 H_18753 94.550 50.526 -18.466 H 1 NIL_1    0.000
104 H_2188 102.996 49.202 -23.761 H 1 NIL_1    0.000
105 H_2196 99.303 47.427 -22.861 H 1 NIL_1    0.000
106 H_2180 84.625 50.182 -21.991 H 1 NIL_1    0.000
107 H_2172 82.887 53.943 -21.342 H 1 NIL_1    0.000
108 H_18731 92.312 50.941 -20.464 H 1 NIL_1    0.000
109 H_18732 93.281 50.859 -21.961 H 1 NIL_1    0.000
110 H_18641 101.137 49.892 -24.955 H 1 NIL_1    0.000
111 H_18642 99.739 48.832 -25.002 H 1 NIL_1    0.000
112 H_18661 83.849 52.856 -19.533 H 1 NIL_1    0.000
113 H_18662 84.075 51.114 -19.634 H 1 NIL_1    0.000
114 H_18701 93.685 52.615 -19.524 H 1 NIL_1    0.000
115 H_18702 95.106 52.083 -20.401 H 1 NIL_1    0.000
116 H_18351 92.633 55.079 -21.729 H 1 NIL_1    0.000
117 H_18352 92.477 54.264 -20.171 H 1 NIL_1    0.000
118 H_22711 87.096 66.355 -23.713 H 1 NIL_1    0.000
119 H_22712 87.597 65.374 -22.296 H 1 NIL_1    0.000
120 H_22713 85.892 65.388 -22.820 H 1 NIL_1    0.000
121 H_18151 96.476 51.183 -21.985 H 1 NIL_1    0.000
122 H_18152 95.847 51.558 -23.607 H 1 NIL_1    0.000
123 H_18811 89.127 58.657 -24.085 H 1 NIL_1    0.000
124 H_18812 88.090 60.072 -23.777 H 1 NIL_1    0.000
125 H_18813 87.360 58.535 -24.327 H 1 NIL_1    0.000
126 H_18251 89.024 51.943 -21.608 H 1 NIL_1    0.000
127 H_18252 88.427 53.482 -22.281 H 1 NIL_1    0.000
128 H_18781 100.554 59.306 -18.328 H 1 NIL_1    0.000
129 H_18782 100.620 57.736 -19.186 H 1 NIL_1    0.000
130 H_18783 99.485 57.967 -17.820 H 1 NIL_1    0.000
131 HP 96.390 53.457 -21.316 H 1 NIL_1    0.000
132 H_18131 98.881 53.911 -24.079 H 1 NIL_1    0.000
133 H_18132 97.433 53.408 -25.010 H 1 NIL_1    0.000
134 H_18271 88.327 54.363 -18.378 H 1 NIL_1    0.000
135 H_18272 87.914 55.309 -19.806 H 1 NIL_1    0.000
136 H_18791 87.339 56.670 -22.813 H 1 NIL_1    0.000
137 H_18792 87.578 56.993 -21.087 H 1 NIL_1    0.000
138 HP 90.507 54.039 -19.071 H 1 NIL_1    0.000
139 H_2210 87.803 62.301 -25.444 H 1 NIL_1    0.000
140 H_2206 89.351 65.857 -23.804 H 1 NIL_1    0.000
141 H_18761 97.992 57.085 -19.558 H 1 NIL_1    0.000
142 H_18762 98.873 57.471 -21.072 H 1 NIL_1    0.000
143 H_18721 89.309 55.499 -22.363 H 1 NIL_1    0.000
144 H_18722 89.931 56.964 -23.048 H 1 NIL_1    0.000
145 H_2212 89.946 61.831 -26.414 H 1 NIL_1    0.000
146 H_2204 91.468 65.377 -24.771 H 1 NIL_1    0.000
147 H_18711 96.284 58.703 -20.015 H 1 NIL_1    0.000
148 H_18712 97.192 59.405 -21.366 H 1 NIL_1    0.000
149 H_18291 95.397 55.747 -21.682 H 1 NIL_1    0.000
150 H_18292 96.933 55.873 -20.875 H 1 NIL_1    0.000
151 H_18401 90.602 58.695 -20.085 H 1 NIL_1    0.000
152 H_18402 90.418 58.739 -21.829 H 1 NIL_1    0.000
153 H_18681 92.114 63.042 -27.301 H 1 NIL_1    0.000
154 H_18682 92.887 64.101 -26.110 H 1 NIL_1    0.000
155 HP 94.737 59.627 -21.057 H 1 NIL_1    0.000
156 H_18181 94.768 61.441 -22.421 H 1 NIL_1    0.000
157 H_18182 95.512 60.391 -23.636 H 1 NIL_1    0.000
158 H_18161 91.633 60.686 -22.464 H 1 NIL_1    0.000
159 H_18162 91.613 59.310 -23.600 H 1 NIL_1    0.000
160 HH 98.993 52.692 -21.561 H 1 NIL_1    0.000
161 HH 88.666 51.601 -18.892 H 1 NIL_1    0.000
162 HH 93.688 59.092 -25.329 H 1 NIL_1    0.000
@<TRIPOS>BOND
1 1 2 1 
2 3 1 1 
3 4 1 1 
4 5 10 1 
5 5 1 1 
6 5 162 1 
7 6 2 1 
8 7 3 1 
9 7 6 1 
10 7 155 1 
11 8 4 1 
12 9 4 2 
13 10 8 1 
14 11 6 1 
15 12 7 1 
16 13 8 1 
17 13 153 1 
18 13 154 1 
19 14 10 2 
20 15 11 2 
21 16 20 1 
22 16 11 1 
23 16 151 1 
24 16 152 1 
25 17 12 2 
26 18 12 1 
27 19 13 1 
28 20 25 1 
29 21 18 1 
30 21 27 1 
31 21 149 1 
32 21 150 1 
33 22 18 1 
34 22 28 1 
35 22 147 1 
36 22 148 1 
37 23 19 2 
38 23 146 1 
39 24 30 2 
40 24 19 1 
41 24 145 1 
42 25 31 1 
43 26 20 1 
44 26 33 1 
45 26 143 1 
46 26 144 1 
47 27 35 1 
48 28 141 1 
49 28 142 1 
50 29 23 1 
51 29 140 1 
52 30 37 1 
53 30 139 1 
54 31 138 1 
55 32 25 2 
56 33 136 1 
57 33 137 1 
58 34 27 2 
59 36 28 1 
60 37 29 2 
61 38 45 1 
62 38 31 1 
63 38 134 1 
64 38 135 1 
65 39 46 1 
66 39 31 1 
67 39 47 1 
68 40 33 1 
69 41 35 1 
70 41 49 1 
71 41 132 1 
72 41 133 1 
73 42 51 1 
74 42 35 1 
75 42 131 1 
76 43 36 1 
77 43 128 1 
78 43 129 1 
79 43 130 1 
80 44 37 1 
81 45 46 1 
82 46 126 1 
83 46 127 1 
84 48 40 1 
85 48 123 1 
86 48 124 1 
87 48 125 1 
88 50 42 1 
89 50 59 2 
90 51 49 1 
91 52 44 1 
92 52 118 1 
93 52 119 1 
94 52 120 1 
95 53 45 1 
96 54 63 1 
97 54 45 1 
98 54 161 1 
99 55 47 2 
100 56 60 1 
101 56 47 1 
102 56 116 1 
103 56 117 1 
104 57 49 1 
105 58 66 1 
106 58 49 1 
107 58 160 1 
108 60 50 1 
109 61 53 1 
110 62 53 2 
111 63 61 1 
112 64 57 1 
113 65 57 2 
114 66 64 1 
115 67 60 1 
116 67 72 1 
117 67 114 1 
118 67 115 1 
119 68 61 1 
120 68 112 1 
121 68 113 1 
122 69 63 2 
123 70 64 1 
124 70 74 1 
125 71 66 2 
126 73 68 1 
127 73 76 2 
128 73 77 1 
129 74 78 1 
130 75 72 1 
131 77 82 2 
132 79 84 1 
133 79 74 2 
134 79 104 1 
135 80 75 1 
136 81 76 1 
137 82 85 1 
138 83 78 2 
139 84 86 2 
140 84 97 1 
141 85 81 2 
142 86 88 1 
143 86 83 1 
144 87 85 1 
145 89 87 1 
146 89 96 1 
147 90 88 1 
148 91 90 1 
149 92 90 1 
150 93 90 1 
151 94 89 1 
152 95 89 1 
153 98 83 1 
154 99 82 1 
155 100 81 1 
156 101 80 1 
157 102 80 1 
158 103 80 1 
159 105 78 1 
160 106 77 1 
161 107 76 1 
162 108 72 1 
163 109 72 1 
164 110 70 1 
165 111 70 1 
166 121 51 1 
167 122 51 1 
168 156 3 1 
169 157 3 1 
170 158 2 1 
171 159 2 1 
@<TRIPOS>SUBSTRUCTURE
1 NIL_1 1 RESIDUE 1 A NIL 1
