@<TRIPOS>MOLECULE
NIL
162 171 1 0 0
POLYMER
CHARGES


@<TRIPOS>ATOM
1 CQ 92.2455 58.7097 -26.7409 C.3 1 NIL_1    0.000
2 C_1816 91.115 57.680 -26.712 C.3 1 NIL_1    0.000
3 C_1818 93.346 58.069 -25.886 C.3 1 NIL_1    0.000
4 C_1854 91.826 60.054 -26.187 C.2 1 NIL_1    0.000
5 NH 92.656 59.119 -28.074 N.am 1 NIL_1    0.000
6 N 91.214 57.002 -25.413 N.am 1 NIL_1    0.000
7 CP 92.592 57.162 -24.879 C.3 1 NIL_1    0.000
8 N 92.059 60.989 -27.141 N.am 1 NIL_1    0.000
9 O 91.374 60.266 -25.077 O.2 1 NIL_1    0.000
10 C_1856 92.542 60.441 -28.281 C.2 1 NIL_1    0.000
11 C_1841 90.194 56.270 -24.889 C.2 1 NIL_1    0.000
12 C_1838 93.330 55.826 -24.731 C.2 1 NIL_1    0.000
13 C_1868 91.898 62.439 -26.939 C.3 1 NIL_1    0.000
14 O 92.831 61.022 -29.308 O.2 1 NIL_1    0.000
15 O 89.333 55.842 -25.630 O.2 1 NIL_1    0.000
16 C_1840 90.168 56.088 -23.369 C.3 1 NIL_1    0.000
17 O 92.861 54.820 -25.234 O.2 1 NIL_1    0.000
18 N 94.542 55.772 -24.092 N.am 1 NIL_1    0.000
19 C_1869 90.486 62.863 -26.598 C.2 1 NIL_1    0.000
20 N 88.975 55.468 -22.707 N.am 1 NIL_1    0.000
21 C_1829 95.303 54.500 -24.083 C.3 1 NIL_1    0.000
22 C_1871 95.239 56.914 -23.442 C.3 1 NIL_1    0.000
23 C_2204 90.180 63.259 -25.360 C.2 1 NIL_1    0.000
24 C_2212 89.527 62.854 -27.527 C.2 1 NIL_1    0.000
25 C_1843 89.087 55.185 -21.371 C.2 1 NIL_1    0.000
26 C_1872 87.698 56.071 -23.173 C.3 1 NIL_1    0.000
27 C_1830 94.711 53.499 -23.106 C.2 1 NIL_1    0.000
28 C_1876 95.780 56.676 -22.010 C.3 1 NIL_1    0.000
29 C_2206 88.940 63.639 -25.052 C.2 1 NIL_1    0.000
30 C_2210 88.285 63.235 -27.222 C.2 1 NIL_1    0.000
31 AP 88.338 54.000 -20.744 C.3 1 NIL_1    0.000
32 O 89.859 55.817 -20.674 O.2 1 NIL_1    0.000
33 C_1879 86.612 55.109 -23.701 C.3 1 NIL_1    0.000
34 O 94.095 53.867 -22.122 O.2 1 NIL_1    0.000
35 N 94.850 52.176 -23.387 N.am 1 NIL_1    0.000
36 O 97.097 56.082 -22.070 O.3 1 NIL_1    0.000
37 C_2208 87.977 63.636 -25.985 C.2 1 NIL_1    0.000
38 C_1827 86.923 54.340 -20.239 C.3 1 NIL_1    0.000
39 N 88.256 52.758 -21.545 N.am 1 NIL_1    0.000
40 O 86.932 54.592 -25.011 O.3 1 NIL_1    0.000
41 C_1813 95.651 51.573 -24.455 C.3 1 NIL_1    0.000
42 BP 94.003 51.134 -22.779 C.3 1 NIL_1    0.000
43 C_1878 97.753 55.892 -20.799 C.3 1 NIL_1    0.000
44 O 86.681 64.022 -25.743 O.3 1 NIL_1    0.000
45 AQ 86.127 53.037 -20.439 C.3 1 NIL_1    0.000
46 C_1825 86.894 52.220 -21.489 C.3 1 NIL_1    0.000
47 C_1844 89.298 52.042 -22.038 C.2 1 NIL_1    0.000
48 C_1881 87.564 53.295 -25.067 C.3 1 NIL_1    0.000
49 BQ 95.635 50.062 -24.179 C.3 1 NIL_1    0.000
50 C_1833 92.540 51.531 -22.912 C.2 1 NIL_1    0.000
51 C_1815 94.289 49.804 -23.496 C.3 1 NIL_1    0.000
52 C_2271 86.376 64.736 -24.520 C.3 1 NIL_1    0.000
53 C_1846 84.691 53.249 -20.837 C.2 1 NIL_1    0.000
54 NH 85.925 52.290 -19.206 N.am 1 NIL_1    0.000
55 O 89.122 51.037 -22.701 O.2 1 NIL_1    0.000
56 C_1835 90.685 52.554 -21.708 C.3 1 NIL_1    0.000
57 C_1850 95.869 49.233 -25.413 C.2 1 NIL_1    0.000
58 NH 96.765 49.627 -23.376 N.am 1 NIL_1    0.000
59 O 92.103 51.910 -23.985 O.2 1 NIL_1    0.000
60 N 91.755 51.551 -21.804 N.am 1 NIL_1    0.000
61 N 83.905 52.621 -19.932 N.am 1 NIL_1    0.000
62 O 84.301 53.866 -21.810 O.2 1 NIL_1    0.000
63 C_1848 84.629 52.050 -18.939 C.2 1 NIL_1    0.000
64 N 96.999 48.512 -25.229 N.am 1 NIL_1    0.000
65 O 95.174 49.223 -26.412 O.2 1 NIL_1    0.000
66 C_1852 97.550 48.741 -24.008 C.2 1 NIL_1    0.000
67 C_1870 91.978 50.815 -20.537 C.3 1 NIL_1    0.000
68 C_1866 82.437 52.554 -20.037 C.3 1 NIL_1    0.000
69 O 84.208 51.438 -17.978 O.2 1 NIL_1    0.000
70 C_1864 97.569 47.666 -26.294 C.3 1 NIL_1    0.000
71 O 98.565 48.261 -23.543 O.2 1 NIL_1    0.000
72 C_1873 91.263 49.454 -20.518 C.3 1 NIL_1    0.000
73 C_1867 82.005 52.015 -21.389 C.2 1 NIL_1    0.000
74 C_1865 98.519 46.564 -25.876 C.2 1 NIL_1    0.000
75 O 91.856 48.616 -21.533 O.3 1 NIL_1    0.000
76 C_2172 81.350 52.794 -22.258 C.2 1 NIL_1    0.000
77 C_2180 82.305 50.763 -21.747 C.2 1 NIL_1    0.000
78 C_2196 98.058 45.451 -25.298 C.2 1 NIL_1    0.000
79 C_2188 99.834 46.693 -26.075 C.2 1 NIL_1    0.000
80 C_1875 91.367 47.263 -21.581 C.3 1 NIL_1    0.000
81 C_2174 81.002 52.330 -23.460 C.2 1 NIL_1    0.000
82 C_2178 81.959 50.297 -22.949 C.2 1 NIL_1    0.000
83 C_2194 98.897 44.485 -24.921 C.2 1 NIL_1    0.000
84 C_2190 100.675 45.730 -25.699 C.2 1 NIL_1    0.000
85 C_2176 81.307 51.080 -23.814 C.2 1 NIL_1    0.000
86 C_2192 100.214 44.621 -25.114 C.2 1 NIL_1    0.000
87 O 80.921 50.617 -25.040 O.3 1 NIL_1    0.000
88 O 101.097 43.642 -24.756 O.3 1 NIL_1    0.000
89 C_2273 81.988 50.269 -25.953 C.3 1 NIL_1    0.000
90 C_2269 101.114 43.293 -23.352 C.3 1 NIL_1    0.000
91 H_22691 101.859 42.507 -23.197 H 1 NIL_1    0.000
92 H_22692 100.133 42.925 -23.043 H 1 NIL_1    0.000
93 H_22693 101.386 44.173 -22.762 H 1 NIL_1    0.000
94 H_22731 81.544 49.879 -26.873 H 1 NIL_1    0.000
95 H_22732 82.630 49.502 -25.513 H 1 NIL_1    0.000
96 H_22733 82.576 51.161 -26.185 H 1 NIL_1    0.000
97 H_2190 101.742 45.853 -25.870 H 1 NIL_1    0.000
98 H_2194 98.498 43.585 -24.460 H 1 NIL_1    0.000
99 H_2178 82.210 49.272 -23.216 H 1 NIL_1    0.000
100 H_2174 80.472 52.980 -24.152 H 1 NIL_1    0.000
101 H_18751 91.635 46.750 -20.654 H 1 NIL_1    0.000
102 H_18752 91.831 46.754 -22.430 H 1 NIL_1    0.000
103 H_18753 90.281 47.270 -21.704 H 1 NIL_1    0.000
104 H_2188 100.230 47.592 -26.544 H 1 NIL_1    0.000
105 H_2196 96.990 45.329 -25.130 H 1 NIL_1    0.000
106 H_2180 82.842 50.115 -21.057 H 1 NIL_1    0.000
107 H_2172 81.104 53.820 -21.993 H 1 NIL_1    0.000
108 H_18731 91.388 48.980 -19.539 H 1 NIL_1    0.000
109 H_18732 90.198 49.580 -20.730 H 1 NIL_1    0.000
110 H_18641 98.080 48.333 -26.993 H 1 NIL_1    0.000
111 H_18642 96.739 47.207 -26.837 H 1 NIL_1    0.000
112 H_18661 82.042 53.563 -19.887 H 1 NIL_1    0.000
113 H_18662 82.037 51.916 -19.244 H 1 NIL_1    0.000
114 H_18701 91.604 51.408 -19.698 H 1 NIL_1    0.000
115 H_18702 93.036 50.645 -20.346 H 1 NIL_1    0.000
116 H_18351 90.887 53.377 -22.397 H 1 NIL_1    0.000
117 H_18352 90.687 52.965 -20.697 H 1 NIL_1    0.000
118 H_22711 86.530 64.075 -23.662 H 1 NIL_1    0.000
119 H_22712 85.332 65.055 -24.547 H 1 NIL_1    0.000
120 H_22713 87.023 65.615 -24.441 H 1 NIL_1    0.000
121 H_18151 94.323 48.963 -22.799 H 1 NIL_1    0.000
122 H_18152 93.521 49.600 -24.247 H 1 NIL_1    0.000
123 H_18811 88.444 53.282 -24.420 H 1 NIL_1    0.000
124 H_18812 87.862 53.100 -26.101 H 1 NIL_1    0.000
125 H_18813 86.848 52.535 -24.743 H 1 NIL_1    0.000
126 H_18251 86.913 51.162 -21.211 H 1 NIL_1    0.000
127 H_18252 86.437 52.311 -22.476 H 1 NIL_1    0.000
128 H_18781 98.739 55.452 -20.974 H 1 NIL_1    0.000
129 H_18782 97.157 55.219 -20.176 H 1 NIL_1    0.000
130 H_18783 97.868 56.859 -20.302 H 1 NIL_1    0.000
131 HP 94.309 51.065 -21.737 H 1 NIL_1    0.000
132 H_18131 96.671 51.970 -24.455 H 1 NIL_1    0.000
133 H_18132 95.166 51.786 -25.412 H 1 NIL_1    0.000
134 H_18271 86.944 54.640 -19.185 H 1 NIL_1    0.000
135 H_18272 86.482 55.156 -20.808 H 1 NIL_1    0.000
136 H_18791 86.438 54.293 -23.010 H 1 NIL_1    0.000
137 H_18792 85.681 55.674 -23.802 H 1 NIL_1    0.000
138 HP 88.918 53.744 -19.851 H 1 NIL_1    0.000
139 H_2210 87.519 63.222 -27.995 H 1 NIL_1    0.000
140 H_2206 88.742 63.948 -24.030 H 1 NIL_1    0.000
141 H_18761 95.874 57.639 -21.502 H 1 NIL_1    0.000
142 H_18762 95.107 56.041 -21.431 H 1 NIL_1    0.000
143 H_18721 87.880 56.823 -23.943 H 1 NIL_1    0.000
144 H_18722 87.274 56.620 -22.329 H 1 NIL_1    0.000
145 H_2212 89.755 62.537 -28.542 H 1 NIL_1    0.000
146 H_2204 90.947 63.273 -24.589 H 1 NIL_1    0.000
147 H_18711 94.549 57.754 -23.362 H 1 NIL_1    0.000
148 H_18712 96.061 57.233 -24.088 H 1 NIL_1    0.000
149 H_18291 96.355 54.643 -23.837 H 1 NIL_1    0.000
150 H_18292 95.256 54.069 -25.086 H 1 NIL_1    0.000
151 H_18401 91.055 55.506 -23.109 H 1 NIL_1    0.000
152 H_18402 90.293 57.092 -22.954 H 1 NIL_1    0.000
153 H_18681 92.213 62.965 -27.844 H 1 NIL_1    0.000
154 H_18682 92.579 62.741 -26.138 H 1 NIL_1    0.000
155 HP 92.532 57.648 -23.902 H 1 NIL_1    0.000
156 H_18181 93.971 58.817 -25.394 H 1 NIL_1    0.000
157 H_18182 93.986 57.461 -26.531 H 1 NIL_1    0.000
158 H_18161 90.139 58.162 -26.825 H 1 NIL_1    0.000
159 H_18162 91.260 56.939 -27.504 H 1 NIL_1    0.000
160 HH 96.939 49.978 -22.446 H 1 NIL_1    0.000
161 HH 86.692 51.985 -18.623 H 1 NIL_1    0.000
162 HH 92.986 58.466 -28.768 H 1 NIL_1    0.000
@<TRIPOS>BOND
1 1 2 1 
2 3 1 1 
3 4 1 1 
4 5 10 1 
5 5 1 1 
6 5 162 1 
7 6 2 1 
8 7 3 1 
9 7 6 1 
10 7 155 1 
11 8 4 1 
12 9 4 2 
13 10 8 1 
14 11 6 1 
15 12 7 1 
16 13 8 1 
17 13 153 1 
18 13 154 1 
19 14 10 2 
20 15 11 2 
21 16 20 1 
22 16 11 1 
23 16 151 1 
24 16 152 1 
25 17 12 2 
26 18 12 1 
27 19 13 1 
28 20 25 1 
29 21 18 1 
30 21 27 1 
31 21 149 1 
32 21 150 1 
33 22 18 1 
34 22 28 1 
35 22 147 1 
36 22 148 1 
37 23 19 2 
38 23 146 1 
39 24 30 2 
40 24 19 1 
41 24 145 1 
42 25 31 1 
43 26 20 1 
44 26 33 1 
45 26 143 1 
46 26 144 1 
47 27 35 1 
48 28 141 1 
49 28 142 1 
50 29 23 1 
51 29 140 1 
52 30 37 1 
53 30 139 1 
54 31 138 1 
55 32 25 2 
56 33 136 1 
57 33 137 1 
58 34 27 2 
59 36 28 1 
60 37 29 2 
61 38 45 1 
62 38 31 1 
63 38 134 1 
64 38 135 1 
65 39 46 1 
66 39 31 1 
67 39 47 1 
68 40 33 1 
69 41 35 1 
70 41 49 1 
71 41 132 1 
72 41 133 1 
73 42 51 1 
74 42 35 1 
75 42 131 1 
76 43 36 1 
77 43 128 1 
78 43 129 1 
79 43 130 1 
80 44 37 1 
81 45 46 1 
82 46 126 1 
83 46 127 1 
84 48 40 1 
85 48 123 1 
86 48 124 1 
87 48 125 1 
88 50 42 1 
89 50 59 2 
90 51 49 1 
91 52 44 1 
92 52 118 1 
93 52 119 1 
94 52 120 1 
95 53 45 1 
96 54 63 1 
97 54 45 1 
98 54 161 1 
99 55 47 2 
100 56 60 1 
101 56 47 1 
102 56 116 1 
103 56 117 1 
104 57 49 1 
105 58 66 1 
106 58 49 1 
107 58 160 1 
108 60 50 1 
109 61 53 1 
110 62 53 2 
111 63 61 1 
112 64 57 1 
113 65 57 2 
114 66 64 1 
115 67 60 1 
116 67 72 1 
117 67 114 1 
118 67 115 1 
119 68 61 1 
120 68 112 1 
121 68 113 1 
122 69 63 2 
123 70 64 1 
124 70 74 1 
125 71 66 2 
126 73 68 1 
127 73 76 2 
128 73 77 1 
129 74 78 1 
130 75 72 1 
131 77 82 2 
132 79 84 1 
133 79 74 2 
134 79 104 1 
135 80 75 1 
136 81 76 1 
137 82 85 1 
138 83 78 2 
139 84 86 2 
140 84 97 1 
141 85 81 2 
142 86 88 1 
143 86 83 1 
144 87 85 1 
145 89 87 1 
146 89 96 1 
147 90 88 1 
148 91 90 1 
149 92 90 1 
150 93 90 1 
151 94 89 1 
152 95 89 1 
153 98 83 1 
154 99 82 1 
155 100 81 1 
156 101 80 1 
157 102 80 1 
158 103 80 1 
159 105 78 1 
160 106 77 1 
161 107 76 1 
162 108 72 1 
163 109 72 1 
164 110 70 1 
165 111 70 1 
166 121 51 1 
167 122 51 1 
168 156 3 1 
169 157 3 1 
170 158 2 1 
171 159 2 1 
@<TRIPOS>SUBSTRUCTURE
1 NIL_1 1 RESIDUE 1 A NIL 1
