@<TRIPOS>MOLECULE
NIL
162 171 1 0 0
POLYMER
CHARGES


@<TRIPOS>ATOM
1 CQ 107.811 77.4046 -7.19069 C.3 1 NIL_1    0.000
2 C_1816 107.110 76.172 -6.595 C.3 1 NIL_1    0.000
3 C_1818 109.290 77.173 -6.863 C.3 1 NIL_1    0.000
4 C_1854 107.316 78.700 -6.583 C.2 1 NIL_1    0.000
5 NH 107.528 77.675 -8.590 N.am 1 NIL_1    0.000
6 N 107.913 75.774 -5.428 N.am 1 NIL_1    0.000
7 CP 109.231 76.443 -5.511 C.3 1 NIL_1    0.000
8 N 106.895 79.501 -7.589 N.am 1 NIL_1    0.000
9 O 107.309 78.990 -5.402 O.2 1 NIL_1    0.000
10 C_1856 107.014 78.900 -8.797 C.2 1 NIL_1    0.000
11 C_1841 107.446 75.020 -4.393 C.2 1 NIL_1    0.000
12 C_1838 110.413 75.502 -5.337 C.2 1 NIL_1    0.000
13 C_1868 106.436 80.888 -7.398 C.3 1 NIL_1    0.000
14 O 106.727 79.372 -9.879 O.2 1 NIL_1    0.000
15 O 106.314 74.579 -4.411 O.2 1 NIL_1    0.000
16 C_1840 108.392 74.780 -3.217 C.3 1 NIL_1    0.000
17 O 110.372 74.375 -5.794 O.2 1 NIL_1    0.000
18 N 111.466 75.932 -4.588 N.am 1 NIL_1    0.000
19 C_1869 107.595 81.812 -7.073 C.2 1 NIL_1    0.000
20 N 107.814 74.110 -2.038 N.am 1 NIL_1    0.000
21 C_1829 112.173 75.014 -3.662 C.3 1 NIL_1    0.000
22 C_1871 111.869 77.350 -4.425 C.3 1 NIL_1    0.000
23 C_2204 108.556 82.038 -7.972 C.2 1 NIL_1    0.000
24 C_2212 107.680 82.411 -5.881 C.2 1 NIL_1    0.000
25 C_1843 107.673 72.764 -1.815 C.2 1 NIL_1    0.000
26 C_1872 107.329 75.105 -1.056 C.3 1 NIL_1    0.000
27 C_1830 112.986 73.901 -4.313 C.2 1 NIL_1    0.000
28 C_1876 112.992 77.751 -5.396 C.3 1 NIL_1    0.000
29 C_2206 109.582 82.840 -7.685 C.2 1 NIL_1    0.000
30 C_2210 108.705 83.217 -5.591 C.2 1 NIL_1    0.000
31 AP 108.040 71.671 -2.833 C.3 1 NIL_1    0.000
32 O 107.192 72.387 -0.763 O.2 1 NIL_1    0.000
33 C_1879 108.412 75.529 -0.043 C.3 1 NIL_1    0.000
34 O 113.184 73.880 -5.513 O.2 1 NIL_1    0.000
35 N 113.507 72.933 -3.506 N.am 1 NIL_1    0.000
36 O 114.121 76.882 -5.173 O.3 1 NIL_1    0.000
37 C_2208 109.672 83.438 -6.494 C.2 1 NIL_1    0.000
38 C_1827 106.741 71.326 -3.599 C.3 1 NIL_1    0.000
39 N 109.122 71.849 -3.842 N.am 1 NIL_1    0.000
40 O 107.854 76.472 0.900 O.3 1 NIL_1    0.000
41 C_1813 114.361 71.843 -4.012 C.3 1 NIL_1    0.000
42 BP 113.558 72.926 -2.029 C.3 1 NIL_1    0.000
43 C_1878 115.248 77.094 -6.042 C.3 1 NIL_1    0.000
44 O 110.762 84.244 -6.277 O.3 1 NIL_1    0.000
45 AQ 107.233 70.936 -4.991 C.3 1 NIL_1    0.000
46 C_1825 108.492 71.780 -5.173 C.3 1 NIL_1    0.000
47 C_1844 110.452 71.558 -3.706 C.2 1 NIL_1    0.000
48 C_1881 107.117 75.892 2.000 C.3 1 NIL_1    0.000
49 BQ 115.203 71.328 -2.836 C.3 1 NIL_1    0.000
50 C_1833 112.269 73.047 -1.207 C.2 1 NIL_1    0.000
51 C_1815 114.379 71.688 -1.591 C.3 1 NIL_1    0.000
52 C_2271 110.967 84.852 -4.978 C.3 1 NIL_1    0.000
53 C_1846 106.243 71.113 -6.114 C.2 1 NIL_1    0.000
54 NH 107.476 69.509 -5.098 N.am 1 NIL_1    0.000
55 O 111.173 71.571 -4.684 O.2 1 NIL_1    0.000
56 C_1835 111.050 71.125 -2.372 C.3 1 NIL_1    0.000
57 C_1850 115.560 69.861 -2.957 C.2 1 NIL_1    0.000
58 NH 116.547 71.889 -2.810 N.am 1 NIL_1    0.000
59 O 112.212 73.936 -0.378 O.2 1 NIL_1    0.000
60 N 111.227 72.167 -1.333 N.am 1 NIL_1    0.000
61 N 106.025 69.894 -6.673 N.am 1 NIL_1    0.000
62 O 105.770 72.174 -6.477 O.2 1 NIL_1    0.000
63 C_1848 106.757 68.927 -6.069 C.2 1 NIL_1    0.000
64 N 116.910 69.753 -2.994 N.am 1 NIL_1    0.000
65 O 114.777 68.933 -3.020 O.2 1 NIL_1    0.000
66 C_1852 117.514 70.961 -2.904 C.2 1 NIL_1    0.000
67 C_1870 110.336 71.949 -0.170 C.3 1 NIL_1    0.000
68 C_1866 105.212 69.619 -7.874 C.3 1 NIL_1    0.000
69 O 106.783 67.745 -6.348 O.2 1 NIL_1    0.000
70 C_1864 117.639 68.470 -3.048 C.3 1 NIL_1    0.000
71 O 118.709 71.183 -2.899 O.2 1 NIL_1    0.000
72 C_1873 111.041 71.209 0.988 C.3 1 NIL_1    0.000
73 C_1867 104.074 70.552 -8.248 C.2 1 NIL_1    0.000
74 C_1865 117.549 67.638 -4.317 C.2 1 NIL_1    0.000
75 O 111.450 69.880 0.589 O.3 1 NIL_1    0.000
76 C_2172 103.150 70.910 -7.351 C.2 1 NIL_1    0.000
77 C_2180 103.973 71.022 -9.496 C.2 1 NIL_1    0.000
78 C_2196 117.612 66.305 -4.230 C.2 1 NIL_1    0.000
79 C_2188 117.437 68.191 -5.530 C.2 1 NIL_1    0.000
80 C_1875 110.401 68.888 0.535 C.3 1 NIL_1    0.000
81 C_2174 102.147 71.721 -7.691 C.2 1 NIL_1    0.000
82 C_2178 102.966 71.826 -9.841 C.2 1 NIL_1    0.000
83 C_2194 117.562 65.544 -5.323 C.2 1 NIL_1    0.000
84 C_2190 117.386 67.431 -6.626 C.2 1 NIL_1    0.000
85 C_2176 102.040 72.176 -8.945 C.2 1 NIL_1    0.000
86 C_2192 117.449 66.093 -6.536 C.2 1 NIL_1    0.000
87 O 101.024 73.008 -9.323 O.3 1 NIL_1    0.000
88 O 117.413 65.242 -7.614 O.3 1 NIL_1    0.000
89 C_2273 99.676 72.538 -9.063 C.3 1 NIL_1    0.000
90 C_2269 117.257 65.777 -8.952 C.3 1 NIL_1    0.000
91 H_22691 116.302 66.303 -9.026 H 1 NIL_1    0.000
92 H_22692 117.271 64.950 -9.666 H 1 NIL_1    0.000
93 H_22693 118.083 66.458 -9.175 H 1 NIL_1    0.000
94 H_22731 99.499 71.613 -9.619 H 1 NIL_1    0.000
95 H_22732 98.969 73.302 -9.395 H 1 NIL_1    0.000
96 H_22733 99.530 72.361 -7.994 H 1 NIL_1    0.000
97 H_2190 117.298 67.928 -7.589 H 1 NIL_1    0.000
98 H_2194 117.621 64.463 -5.219 H 1 NIL_1    0.000
99 H_2178 102.900 72.192 -10.863 H 1 NIL_1    0.000
100 H_2174 101.420 72.010 -6.935 H 1 NIL_1    0.000
101 H_18751 109.660 69.171 -0.217 H 1 NIL_1    0.000
102 H_18752 109.922 68.814 1.515 H 1 NIL_1    0.000
103 H_18753 110.842 67.924 0.268 H 1 NIL_1    0.000
104 H_2188 117.394 69.273 -5.638 H 1 NIL_1    0.000
105 H_2196 117.714 65.831 -3.257 H 1 NIL_1    0.000
106 H_2180 104.714 70.745 -10.244 H 1 NIL_1    0.000
107 H_2172 103.216 70.548 -6.327 H 1 NIL_1    0.000
108 H_18731 111.935 71.761 1.293 H 1 NIL_1    0.000
109 H_18732 110.368 71.136 1.845 H 1 NIL_1    0.000
110 H_18641 117.279 67.865 -2.212 H 1 NIL_1    0.000
111 H_18642 118.699 68.662 -2.856 H 1 NIL_1    0.000
112 H_18661 104.786 68.618 -7.760 H 1 NIL_1    0.000
113 H_18662 105.912 69.561 -8.714 H 1 NIL_1    0.000
114 H_18701 109.464 71.365 -0.460 H 1 NIL_1    0.000
115 H_18702 109.974 72.912 0.195 H 1 NIL_1    0.000
116 H_18351 110.402 70.332 -1.998 H 1 NIL_1    0.000
117 H_18352 112.010 70.655 -2.589 H 1 NIL_1    0.000
118 H_22711 111.022 84.073 -4.212 H 1 NIL_1    0.000
119 H_22712 110.146 85.541 -4.760 H 1 NIL_1    0.000
120 H_22713 111.909 85.406 -4.998 H 1 NIL_1    0.000
121 H_18151 115.008 71.912 -0.725 H 1 NIL_1    0.000
122 H_18152 113.728 70.856 -1.318 H 1 NIL_1    0.000
123 H_18811 106.643 76.692 2.573 H 1 NIL_1    0.000
124 H_18812 107.809 75.341 2.643 H 1 NIL_1    0.000
125 H_18813 106.352 75.213 1.619 H 1 NIL_1    0.000
126 H_18251 109.142 71.313 -5.919 H 1 NIL_1    0.000
127 H_18252 108.236 72.786 -5.510 H 1 NIL_1    0.000
128 H_18781 114.940 76.952 -7.082 H 1 NIL_1    0.000
129 H_18782 116.022 76.367 -5.785 H 1 NIL_1    0.000
130 H_18783 115.629 78.108 -5.898 H 1 NIL_1    0.000
131 HP 114.148 73.808 -1.764 H 1 NIL_1    0.000
132 H_18131 115.006 72.199 -4.821 H 1 NIL_1    0.000
133 H_18132 113.719 71.045 -4.391 H 1 NIL_1    0.000
134 H_18271 106.186 70.523 -3.107 H 1 NIL_1    0.000
135 H_18272 106.085 72.194 -3.663 H 1 NIL_1    0.000
136 H_18791 108.793 74.663 0.504 H 1 NIL_1    0.000
137 H_18792 109.240 76.014 -0.569 H 1 NIL_1    0.000
138 HP 108.304 70.785 -2.251 H 1 NIL_1    0.000
139 H_2210 108.729 83.682 -4.610 H 1 NIL_1    0.000
140 H_2206 110.353 83.005 -8.433 H 1 NIL_1    0.000
141 H_18761 112.652 77.652 -6.431 H 1 NIL_1    0.000
142 H_18762 113.292 78.785 -5.206 H 1 NIL_1    0.000
143 H_18721 106.468 74.696 -0.521 H 1 NIL_1    0.000
144 H_18722 106.981 75.994 -1.587 H 1 NIL_1    0.000
145 H_2212 106.909 82.244 -5.132 H 1 NIL_1    0.000
146 H_2204 108.510 81.563 -8.949 H 1 NIL_1    0.000
147 H_18711 112.208 77.524 -3.401 H 1 NIL_1    0.000
148 H_18712 111.031 78.024 -4.598 H 1 NIL_1    0.000
149 H_18291 111.412 74.551 -3.032 H 1 NIL_1    0.000
150 H_18292 112.860 75.565 -3.016 H 1 NIL_1    0.000
151 H_18401 109.249 74.212 -3.557 H 1 NIL_1    0.000
152 H_18402 108.768 75.763 -2.919 H 1 NIL_1    0.000
153 H_18681 105.700 80.903 -6.590 H 1 NIL_1    0.000
154 H_18682 105.935 81.236 -8.306 H 1 NIL_1    0.000
155 HP 109.235 77.175 -4.701 H 1 NIL_1    0.000
156 H_18181 109.863 78.101 -6.811 H 1 NIL_1    0.000
157 H_18182 109.739 76.526 -7.622 H 1 NIL_1    0.000
158 H_18161 106.078 76.397 -6.313 H 1 NIL_1    0.000
159 H_18162 107.124 75.350 -7.315 H 1 NIL_1    0.000
160 HH 116.724 72.875 -2.690 H 1 NIL_1    0.000
161 HH 108.104 69.015 -4.482 H 1 NIL_1    0.000
162 HH 107.758 77.027 -9.329 H 1 NIL_1    0.000
@<TRIPOS>BOND
1 1 2 1 
2 3 1 1 
3 4 1 1 
4 5 10 1 
5 5 1 1 
6 5 162 1 
7 6 2 1 
8 7 3 1 
9 7 6 1 
10 7 155 1 
11 8 4 1 
12 9 4 2 
13 10 8 1 
14 11 6 1 
15 12 7 1 
16 13 8 1 
17 13 153 1 
18 13 154 1 
19 14 10 2 
20 15 11 2 
21 16 20 1 
22 16 11 1 
23 16 151 1 
24 16 152 1 
25 17 12 2 
26 18 12 1 
27 19 13 1 
28 20 25 1 
29 21 18 1 
30 21 27 1 
31 21 149 1 
32 21 150 1 
33 22 18 1 
34 22 28 1 
35 22 147 1 
36 22 148 1 
37 23 19 2 
38 23 146 1 
39 24 30 2 
40 24 19 1 
41 24 145 1 
42 25 31 1 
43 26 20 1 
44 26 33 1 
45 26 143 1 
46 26 144 1 
47 27 35 1 
48 28 141 1 
49 28 142 1 
50 29 23 1 
51 29 140 1 
52 30 37 1 
53 30 139 1 
54 31 138 1 
55 32 25 2 
56 33 136 1 
57 33 137 1 
58 34 27 2 
59 36 28 1 
60 37 29 2 
61 38 45 1 
62 38 31 1 
63 38 134 1 
64 38 135 1 
65 39 46 1 
66 39 31 1 
67 39 47 1 
68 40 33 1 
69 41 35 1 
70 41 49 1 
71 41 132 1 
72 41 133 1 
73 42 51 1 
74 42 35 1 
75 42 131 1 
76 43 36 1 
77 43 128 1 
78 43 129 1 
79 43 130 1 
80 44 37 1 
81 45 46 1 
82 46 126 1 
83 46 127 1 
84 48 40 1 
85 48 123 1 
86 48 124 1 
87 48 125 1 
88 50 42 1 
89 50 59 2 
90 51 49 1 
91 52 44 1 
92 52 118 1 
93 52 119 1 
94 52 120 1 
95 53 45 1 
96 54 63 1 
97 54 45 1 
98 54 161 1 
99 55 47 2 
100 56 60 1 
101 56 47 1 
102 56 116 1 
103 56 117 1 
104 57 49 1 
105 58 66 1 
106 58 49 1 
107 58 160 1 
108 60 50 1 
109 61 53 1 
110 62 53 2 
111 63 61 1 
112 64 57 1 
113 65 57 2 
114 66 64 1 
115 67 60 1 
116 67 72 1 
117 67 114 1 
118 67 115 1 
119 68 61 1 
120 68 112 1 
121 68 113 1 
122 69 63 2 
123 70 64 1 
124 70 74 1 
125 71 66 2 
126 73 68 1 
127 73 76 2 
128 73 77 1 
129 74 78 1 
130 75 72 1 
131 77 82 2 
132 79 84 1 
133 79 74 2 
134 79 104 1 
135 80 75 1 
136 81 76 1 
137 82 85 1 
138 83 78 2 
139 84 86 2 
140 84 97 1 
141 85 81 2 
142 86 88 1 
143 86 83 1 
144 87 85 1 
145 89 87 1 
146 89 96 1 
147 90 88 1 
148 91 90 1 
149 92 90 1 
150 93 90 1 
151 94 89 1 
152 95 89 1 
153 98 83 1 
154 99 82 1 
155 100 81 1 
156 101 80 1 
157 102 80 1 
158 103 80 1 
159 105 78 1 
160 106 77 1 
161 107 76 1 
162 108 72 1 
163 109 72 1 
164 110 70 1 
165 111 70 1 
166 121 51 1 
167 122 51 1 
168 156 3 1 
169 157 3 1 
170 158 2 1 
171 159 2 1 
@<TRIPOS>SUBSTRUCTURE
1 NIL_1 1 RESIDUE 1 A NIL 1
