@<TRIPOS>MOLECULE
NIL
162 171 1 0 0
POLYMER
CHARGES


@<TRIPOS>ATOM
1 CQ 86.8966 52.7826 -34.0955 C.3 1 NIL_1    0.000
2 C_1816 86.053 51.561 -34.465 C.3 1 NIL_1    0.000
3 C_1818 87.635 52.372 -32.820 C.3 1 NIL_1    0.000
4 C_1854 86.030 54.005 -33.897 C.2 1 NIL_1    0.000
5 NH 87.759 53.272 -35.158 N.am 1 NIL_1    0.000
6 N 85.792 50.828 -33.219 N.am 1 NIL_1    0.000
7 CP 86.764 51.266 -32.181 C.3 1 NIL_1    0.000
8 N 86.425 54.947 -34.788 N.am 1 NIL_1    0.000
9 O 85.134 54.127 -33.082 O.2 1 NIL_1    0.000
10 C_1856 87.475 54.528 -35.537 C.2 1 NIL_1    0.000
11 C_1841 84.775 49.926 -33.112 C.2 1 NIL_1    0.000
12 C_1838 87.659 50.157 -31.622 C.2 1 NIL_1    0.000
13 C_1868 85.796 56.274 -34.928 C.3 1 NIL_1    0.000
14 O 88.063 55.156 -36.395 O.2 1 NIL_1    0.000
15 O 84.035 49.713 -34.054 O.2 1 NIL_1    0.000
16 C_1840 84.580 49.128 -31.833 C.3 1 NIL_1    0.000
17 O 87.762 49.099 -32.217 O.2 1 NIL_1    0.000
18 N 88.351 50.375 -30.460 N.am 1 NIL_1    0.000
19 C_1869 85.273 56.537 -36.329 C.2 1 NIL_1    0.000
20 N 83.314 49.373 -31.101 N.am 1 NIL_1    0.000
21 C_1829 89.216 49.323 -29.876 C.3 1 NIL_1    0.000
22 C_1871 88.385 51.640 -29.687 C.3 1 NIL_1    0.000
23 C_2204 85.843 57.466 -37.102 C.2 1 NIL_1    0.000
24 C_2212 84.239 55.845 -36.814 C.2 1 NIL_1    0.000
25 C_1843 82.448 48.442 -30.569 C.2 1 NIL_1    0.000
26 C_1872 83.202 50.807 -30.727 C.3 1 NIL_1    0.000
27 C_1830 88.541 48.492 -28.787 C.2 1 NIL_1    0.000
28 C_1876 89.633 52.503 -29.983 C.3 1 NIL_1    0.000
29 C_2206 85.394 57.697 -38.337 C.2 1 NIL_1    0.000
30 C_2210 83.788 56.074 -38.050 C.2 1 NIL_1    0.000
31 AP 82.553 46.921 -30.781 C.3 1 NIL_1    0.000
32 O 81.518 48.817 -29.880 O.2 1 NIL_1    0.000
33 C_1879 82.353 51.655 -31.695 C.3 1 NIL_1    0.000
34 O 87.785 49.018 -27.996 O.2 1 NIL_1    0.000
35 N 88.849 47.164 -28.703 N.am 1 NIL_1    0.000
36 O 89.574 53.739 -29.232 O.3 1 NIL_1    0.000
37 C_2208 84.360 56.998 -38.826 C.2 1 NIL_1    0.000
38 C_1827 81.578 46.498 -31.894 C.3 1 NIL_1    0.000
39 N 83.855 46.282 -31.083 N.am 1 NIL_1    0.000
40 O 80.971 51.246 -31.606 O.3 1 NIL_1    0.000
41 C_1813 89.829 46.474 -29.561 C.3 1 NIL_1    0.000
42 BP 88.306 46.198 -27.714 C.3 1 NIL_1    0.000
43 C_1878 88.719 54.782 -29.757 C.3 1 NIL_1    0.000
44 O 83.840 57.175 -40.086 O.3 1 NIL_1    0.000
45 AQ 82.253 45.269 -32.510 C.3 1 NIL_1    0.000
46 C_1825 83.750 45.574 -32.367 C.3 1 NIL_1    0.000
47 C_1844 84.977 46.329 -30.319 C.2 1 NIL_1    0.000
48 C_1881 80.082 51.907 -32.531 C.3 1 NIL_1    0.000
49 BQ 89.995 45.029 -29.059 C.3 1 NIL_1    0.000
50 C_1833 86.854 45.793 -28.000 C.2 1 NIL_1    0.000
51 C_1815 89.277 44.992 -27.699 C.3 1 NIL_1    0.000
52 C_2271 84.534 58.023 -41.034 C.3 1 NIL_1    0.000
53 C_1846 81.791 44.956 -33.909 C.2 1 NIL_1    0.000
54 NH 81.897 44.021 -31.854 N.am 1 NIL_1    0.000
55 O 86.058 46.013 -30.780 O.2 1 NIL_1    0.000
56 C_1835 84.769 46.815 -28.887 C.3 1 NIL_1    0.000
57 C_1850 89.479 44.018 -30.064 C.2 1 NIL_1    0.000
58 NH 91.383 44.599 -29.003 N.am 1 NIL_1    0.000
59 O 86.544 44.662 -28.327 O.2 1 NIL_1    0.000
60 N 85.914 46.774 -27.951 N.am 1 NIL_1    0.000
61 N 81.273 43.704 -33.912 N.am 1 NIL_1    0.000
62 O 81.859 45.700 -34.870 O.2 1 NIL_1    0.000
63 C_1848 81.372 43.113 -32.691 C.2 1 NIL_1    0.000
64 N 90.511 43.226 -30.447 N.am 1 NIL_1    0.000
65 O 88.344 43.945 -30.494 O.2 1 NIL_1    0.000
66 C_1852 91.664 43.572 -29.822 C.2 1 NIL_1    0.000
67 C_1870 85.615 47.411 -26.639 C.3 1 NIL_1    0.000
68 C_1866 80.688 43.098 -35.125 C.3 1 NIL_1    0.000
69 O 81.068 41.980 -32.376 O.2 1 NIL_1    0.000
70 C_1864 90.397 42.216 -31.520 C.3 1 NIL_1    0.000
71 O 92.763 43.076 -29.964 O.2 1 NIL_1    0.000
72 C_1873 84.812 48.742 -26.635 C.3 1 NIL_1    0.000
73 C_1867 79.755 41.916 -34.945 C.2 1 NIL_1    0.000
74 C_1865 91.292 40.992 -31.460 C.2 1 NIL_1    0.000
75 O 83.400 48.544 -26.905 O.3 1 NIL_1    0.000
76 C_2172 80.073 40.724 -35.458 C.2 1 NIL_1    0.000
77 C_2180 78.610 42.038 -34.261 C.2 1 NIL_1    0.000
78 C_2196 91.077 40.039 -30.550 C.2 1 NIL_1    0.000
79 C_2188 92.297 40.833 -32.327 C.2 1 NIL_1    0.000
80 C_1875 82.613 47.932 -25.859 C.3 1 NIL_1    0.000
81 C_2174 79.276 39.671 -35.282 C.2 1 NIL_1    0.000
82 C_2178 77.821 40.979 -34.066 C.2 1 NIL_1    0.000
83 C_2194 91.844 38.948 -30.511 C.2 1 NIL_1    0.000
84 C_2190 93.065 39.743 -32.291 C.2 1 NIL_1    0.000
85 C_2176 78.150 39.787 -34.571 C.2 1 NIL_1    0.000
86 C_2192 92.844 38.782 -31.380 C.2 1 NIL_1    0.000
87 O 77.334 38.713 -34.353 O.3 1 NIL_1    0.000
88 O 93.577 37.624 -31.283 O.3 1 NIL_1    0.000
89 C_2273 77.915 37.671 -33.531 C.3 1 NIL_1    0.000
90 C_2269 94.736 37.421 -32.127 C.3 1 NIL_1    0.000
91 H_22691 95.474 38.202 -31.925 H 1 NIL_1    0.000
92 H_22692 94.436 37.441 -33.178 H 1 NIL_1    0.000
93 H_22693 95.168 36.443 -31.895 H 1 NIL_1    0.000
94 H_22731 78.171 38.085 -32.553 H 1 NIL_1    0.000
95 H_22732 78.812 37.276 -34.015 H 1 NIL_1    0.000
96 H_22733 77.191 36.865 -33.402 H 1 NIL_1    0.000
97 H_2190 93.865 39.655 -33.020 H 1 NIL_1    0.000
98 H_2194 91.646 38.184 -29.761 H 1 NIL_1    0.000
99 H_2178 76.912 41.083 -33.478 H 1 NIL_1    0.000
100 H_2174 79.556 38.714 -35.715 H 1 NIL_1    0.000
101 H_18751 82.972 46.918 -25.668 H 1 NIL_1    0.000
102 H_18752 81.569 47.891 -26.180 H 1 NIL_1    0.000
103 H_18753 82.692 48.536 -24.951 H 1 NIL_1    0.000
104 H_2188 92.493 41.596 -33.079 H 1 NIL_1    0.000
105 H_2196 90.266 40.147 -29.834 H 1 NIL_1    0.000
106 H_2180 78.330 43.001 -33.835 H 1 NIL_1    0.000
107 H_2172 80.993 40.600 -36.022 H 1 NIL_1    0.000
108 H_18731 84.903 49.217 -25.654 H 1 NIL_1    0.000
109 H_18732 85.219 49.424 -27.385 H 1 NIL_1    0.000
110 H_18641 90.569 42.738 -32.466 H 1 NIL_1    0.000
111 H_18642 89.363 41.861 -31.540 H 1 NIL_1    0.000
112 H_18661 81.521 42.806 -35.768 H 1 NIL_1    0.000
113 H_18662 80.136 43.881 -35.653 H 1 NIL_1    0.000
114 H_18701 86.560 47.619 -26.136 H 1 NIL_1    0.000
115 H_18702 85.092 46.675 -26.024 H 1 NIL_1    0.000
116 H_18351 84.456 47.852 -28.997 H 1 NIL_1    0.000
117 H_18352 83.948 46.236 -28.453 H 1 NIL_1    0.000
118 H_22711 83.995 57.999 -41.984 H 1 NIL_1    0.000
119 H_22712 85.550 57.647 -41.184 H 1 NIL_1    0.000
120 H_22713 84.561 59.050 -40.660 H 1 NIL_1    0.000
121 H_18151 90.012 45.158 -26.906 H 1 NIL_1    0.000
122 H_18152 88.794 44.032 -27.501 H 1 NIL_1    0.000
123 H_18811 80.147 52.991 -32.390 H 1 NIL_1    0.000
124 H_18812 79.058 51.572 -32.339 H 1 NIL_1    0.000
125 H_18813 80.369 51.645 -33.554 H 1 NIL_1    0.000
126 H_18251 84.347 44.658 -32.363 H 1 NIL_1    0.000
127 H_18252 84.088 46.237 -33.169 H 1 NIL_1    0.000
128 H_18781 89.073 55.080 -30.748 H 1 NIL_1    0.000
129 H_18782 88.757 55.642 -29.084 H 1 NIL_1    0.000
130 H_18783 87.691 54.424 -29.825 H 1 NIL_1    0.000
131 HP 88.320 46.658 -26.723 H 1 NIL_1    0.000
132 H_18131 90.784 47.002 -29.499 H 1 NIL_1    0.000
133 H_18132 89.478 46.484 -30.597 H 1 NIL_1    0.000
134 H_18271 80.581 46.286 -31.504 H 1 NIL_1    0.000
135 H_18272 81.496 47.292 -32.642 H 1 NIL_1    0.000
136 H_18791 82.429 52.707 -31.410 H 1 NIL_1    0.000
137 H_18792 82.701 51.541 -32.724 H 1 NIL_1    0.000
138 HP 82.194 46.467 -29.853 H 1 NIL_1    0.000
139 H_2210 82.946 55.497 -38.425 H 1 NIL_1    0.000
140 H_2206 85.892 58.463 -38.926 H 1 NIL_1    0.000
141 H_18761 90.533 51.966 -29.670 H 1 NIL_1    0.000
142 H_18762 89.714 52.732 -31.047 H 1 NIL_1    0.000
143 H_18721 84.201 51.246 -30.676 H 1 NIL_1    0.000
144 H_18722 82.782 50.891 -29.721 H 1 NIL_1    0.000
145 H_2212 83.758 55.085 -36.203 H 1 NIL_1    0.000
146 H_2204 86.684 58.044 -36.728 H 1 NIL_1    0.000
147 H_18711 88.382 51.404 -28.621 H 1 NIL_1    0.000
148 H_18712 87.485 52.222 -29.876 H 1 NIL_1    0.000
149 H_18291 90.099 49.774 -29.418 H 1 NIL_1    0.000
150 H_18292 89.563 48.673 -30.678 H 1 NIL_1    0.000
151 H_18401 84.643 48.120 -32.211 H 1 NIL_1    0.000
152 H_18402 85.402 49.284 -31.137 H 1 NIL_1    0.000
153 H_18681 86.540 57.029 -34.661 H 1 NIL_1    0.000
154 H_18682 84.969 56.363 -34.220 H 1 NIL_1    0.000
155 HP 86.185 51.691 -31.359 H 1 NIL_1    0.000
156 H_18181 87.774 53.219 -32.147 H 1 NIL_1    0.000
157 H_18182 88.618 51.971 -33.083 H 1 NIL_1    0.000
158 H_18161 85.118 51.865 -34.944 H 1 NIL_1    0.000
159 H_18162 86.615 50.906 -35.138 H 1 NIL_1    0.000
160 HH 92.074 45.072 -28.439 H 1 NIL_1    0.000
161 HH 82.108 43.839 -30.885 H 1 NIL_1    0.000
162 HH 88.504 52.717 -35.552 H 1 NIL_1    0.000
@<TRIPOS>BOND
1 1 2 1 
2 3 1 1 
3 4 1 1 
4 5 10 1 
5 5 1 1 
6 5 162 1 
7 6 2 1 
8 7 3 1 
9 7 6 1 
10 7 155 1 
11 8 4 1 
12 9 4 2 
13 10 8 1 
14 11 6 1 
15 12 7 1 
16 13 8 1 
17 13 153 1 
18 13 154 1 
19 14 10 2 
20 15 11 2 
21 16 20 1 
22 16 11 1 
23 16 151 1 
24 16 152 1 
25 17 12 2 
26 18 12 1 
27 19 13 1 
28 20 25 1 
29 21 18 1 
30 21 27 1 
31 21 149 1 
32 21 150 1 
33 22 18 1 
34 22 28 1 
35 22 147 1 
36 22 148 1 
37 23 19 2 
38 23 146 1 
39 24 30 2 
40 24 19 1 
41 24 145 1 
42 25 31 1 
43 26 20 1 
44 26 33 1 
45 26 143 1 
46 26 144 1 
47 27 35 1 
48 28 141 1 
49 28 142 1 
50 29 23 1 
51 29 140 1 
52 30 37 1 
53 30 139 1 
54 31 138 1 
55 32 25 2 
56 33 136 1 
57 33 137 1 
58 34 27 2 
59 36 28 1 
60 37 29 2 
61 38 45 1 
62 38 31 1 
63 38 134 1 
64 38 135 1 
65 39 46 1 
66 39 31 1 
67 39 47 1 
68 40 33 1 
69 41 35 1 
70 41 49 1 
71 41 132 1 
72 41 133 1 
73 42 51 1 
74 42 35 1 
75 42 131 1 
76 43 36 1 
77 43 128 1 
78 43 129 1 
79 43 130 1 
80 44 37 1 
81 45 46 1 
82 46 126 1 
83 46 127 1 
84 48 40 1 
85 48 123 1 
86 48 124 1 
87 48 125 1 
88 50 42 1 
89 50 59 2 
90 51 49 1 
91 52 44 1 
92 52 118 1 
93 52 119 1 
94 52 120 1 
95 53 45 1 
96 54 63 1 
97 54 45 1 
98 54 161 1 
99 55 47 2 
100 56 60 1 
101 56 47 1 
102 56 116 1 
103 56 117 1 
104 57 49 1 
105 58 66 1 
106 58 49 1 
107 58 160 1 
108 60 50 1 
109 61 53 1 
110 62 53 2 
111 63 61 1 
112 64 57 1 
113 65 57 2 
114 66 64 1 
115 67 60 1 
116 67 72 1 
117 67 114 1 
118 67 115 1 
119 68 61 1 
120 68 112 1 
121 68 113 1 
122 69 63 2 
123 70 64 1 
124 70 74 1 
125 71 66 2 
126 73 68 1 
127 73 76 2 
128 73 77 1 
129 74 78 1 
130 75 72 1 
131 77 82 2 
132 79 84 1 
133 79 74 2 
134 79 104 1 
135 80 75 1 
136 81 76 1 
137 82 85 1 
138 83 78 2 
139 84 86 2 
140 84 97 1 
141 85 81 2 
142 86 88 1 
143 86 83 1 
144 87 85 1 
145 89 87 1 
146 89 96 1 
147 90 88 1 
148 91 90 1 
149 92 90 1 
150 93 90 1 
151 94 89 1 
152 95 89 1 
153 98 83 1 
154 99 82 1 
155 100 81 1 
156 101 80 1 
157 102 80 1 
158 103 80 1 
159 105 78 1 
160 106 77 1 
161 107 76 1 
162 108 72 1 
163 109 72 1 
164 110 70 1 
165 111 70 1 
166 121 51 1 
167 122 51 1 
168 156 3 1 
169 157 3 1 
170 158 2 1 
171 159 2 1 
@<TRIPOS>SUBSTRUCTURE
1 NIL_1 1 RESIDUE 1 A NIL 1
