@<TRIPOS>MOLECULE
NIL
162 171 1 0 0
POLYMER
CHARGES


@<TRIPOS>ATOM
1 CQ 82.604 50.4521 -35.0189 C.3 1 NIL_1    0.000
2 C_1816 83.510 49.351 -35.581 C.3 1 NIL_1    0.000
3 C_1818 82.010 49.845 -33.745 C.3 1 NIL_1    0.000
4 C_1854 81.538 50.847 -36.014 C.2 1 NIL_1    0.000
5 NH 83.269 51.733 -34.858 N.am 1 NIL_1    0.000
6 N 82.953 48.066 -35.130 N.am 1 NIL_1    0.000
7 CP 82.035 48.321 -33.992 C.3 1 NIL_1    0.000
8 N 81.729 52.149 -36.334 N.am 1 NIL_1    0.000
9 O 80.664 50.127 -36.457 O.2 1 NIL_1    0.000
10 C_1856 82.764 52.693 -35.651 C.2 1 NIL_1    0.000
11 C_1841 83.124 46.916 -35.838 C.2 1 NIL_1    0.000
12 C_1838 82.208 47.599 -32.644 C.2 1 NIL_1    0.000
13 C_1868 80.948 52.867 -37.354 C.3 1 NIL_1    0.000
14 O 83.175 53.834 -35.732 O.2 1 NIL_1    0.000
15 O 83.991 46.882 -36.689 O.2 1 NIL_1    0.000
16 C_1840 82.128 45.782 -35.561 C.3 1 NIL_1    0.000
17 O 81.182 47.393 -32.024 O.2 1 NIL_1    0.000
18 N 83.412 47.189 -32.113 N.am 1 NIL_1    0.000
19 C_1869 81.569 52.664 -38.723 C.2 1 NIL_1    0.000
20 N 82.295 44.381 -36.060 N.am 1 NIL_1    0.000
21 C_1829 83.439 46.604 -30.739 C.3 1 NIL_1    0.000
22 C_1871 84.771 47.569 -32.588 C.3 1 NIL_1    0.000
23 C_2204 81.328 51.553 -39.426 C.2 1 NIL_1    0.000
24 C_2212 82.377 53.590 -39.247 C.2 1 NIL_1    0.000
25 C_1843 81.501 43.350 -35.632 C.2 1 NIL_1    0.000
26 C_1872 83.322 44.107 -37.095 C.3 1 NIL_1    0.000
27 C_1830 84.500 45.558 -30.429 C.2 1 NIL_1    0.000
28 C_1876 85.516 48.602 -31.710 C.3 1 NIL_1    0.000
29 C_2206 81.891 51.367 -40.620 C.2 1 NIL_1    0.000
30 C_2210 82.940 53.408 -40.442 C.2 1 NIL_1    0.000
31 AP 80.305 43.627 -34.717 C.3 1 NIL_1    0.000
32 O 81.728 42.203 -35.973 O.2 1 NIL_1    0.000
33 C_1879 84.671 43.625 -36.512 C.3 1 NIL_1    0.000
34 O 85.530 45.836 -29.847 O.2 1 NIL_1    0.000
35 N 84.227 44.286 -30.806 N.am 1 NIL_1    0.000
36 O 84.671 49.751 -31.492 O.3 1 NIL_1    0.000
37 C_2208 82.709 52.286 -41.140 C.2 1 NIL_1    0.000
38 C_1827 79.008 43.091 -35.356 C.3 1 NIL_1    0.000
39 N 80.488 42.927 -33.438 N.am 1 NIL_1    0.000
40 O 85.177 44.580 -35.556 O.3 1 NIL_1    0.000
41 C_1813 84.983 43.716 -31.929 C.3 1 NIL_1    0.000
42 BP 84.173 43.237 -29.758 C.3 1 NIL_1    0.000
43 C_1878 85.264 50.819 -30.728 C.3 1 NIL_1    0.000
44 O 83.256 52.029 -42.371 O.3 1 NIL_1    0.000
45 AQ 78.551 41.925 -34.457 C.3 1 NIL_1    0.000
46 C_1825 79.634 41.741 -33.389 C.3 1 NIL_1    0.000
47 C_1844 81.379 43.305 -32.492 C.2 1 NIL_1    0.000
48 C_1881 86.467 44.266 -35.003 C.3 1 NIL_1    0.000
49 BQ 85.784 42.518 -31.400 C.3 1 NIL_1    0.000
50 C_1833 82.767 42.954 -29.218 C.2 1 NIL_1    0.000
51 C_1815 84.951 41.983 -30.227 C.3 1 NIL_1    0.000
52 C_2271 84.504 52.670 -42.729 C.3 1 NIL_1    0.000
53 C_1846 78.292 40.639 -35.199 C.2 1 NIL_1    0.000
54 NH 77.232 42.140 -33.885 N.am 1 NIL_1    0.000
55 O 81.846 44.423 -32.496 O.2 1 NIL_1    0.000
56 C_1835 81.810 42.285 -31.458 C.3 1 NIL_1    0.000
57 C_1850 86.105 41.525 -32.491 C.2 1 NIL_1    0.000
58 NH 87.135 42.892 -31.018 N.am 1 NIL_1    0.000
59 O 82.595 42.984 -28.014 O.2 1 NIL_1    0.000
60 N 81.707 42.767 -30.066 N.am 1 NIL_1    0.000
61 N 77.010 40.273 -34.967 N.am 1 NIL_1    0.000
62 O 79.097 40.028 -35.876 O.2 1 NIL_1    0.000
63 C_1848 76.356 41.171 -34.196 C.2 1 NIL_1    0.000
64 N 87.452 41.495 -32.654 N.am 1 NIL_1    0.000
65 O 85.294 40.897 -33.143 O.2 1 NIL_1    0.000
66 C_1852 88.082 42.309 -31.771 C.2 1 NIL_1    0.000
67 C_1870 80.297 42.753 -29.596 C.3 1 NIL_1    0.000
68 C_1866 76.384 39.073 -35.540 C.3 1 NIL_1    0.000
69 O 75.192 41.134 -33.851 O.2 1 NIL_1    0.000
70 C_1864 88.127 40.797 -33.768 C.3 1 NIL_1    0.000
71 O 89.276 42.507 -31.669 O.2 1 NIL_1    0.000
72 C_1873 79.492 44.020 -29.968 C.3 1 NIL_1    0.000
73 C_1867 75.920 39.394 -36.943 C.2 1 NIL_1    0.000
74 C_1865 89.425 40.084 -33.435 C.2 1 NIL_1    0.000
75 O 80.149 45.219 -29.493 O.3 1 NIL_1    0.000
76 C_2172 76.725 39.177 -37.988 C.2 1 NIL_1    0.000
77 C_2180 74.717 39.933 -37.156 C.2 1 NIL_1    0.000
78 C_2196 89.421 38.958 -32.716 C.2 1 NIL_1    0.000
79 C_2188 90.599 40.569 -33.853 C.2 1 NIL_1    0.000
80 C_1875 80.033 45.493 -28.081 C.3 1 NIL_1    0.000
81 C_2174 76.338 39.499 -39.222 C.2 1 NIL_1    0.000
82 C_2178 74.328 40.254 -38.391 C.2 1 NIL_1    0.000
83 C_2194 90.563 38.341 -32.411 C.2 1 NIL_1    0.000
84 C_2190 91.743 39.955 -33.549 C.2 1 NIL_1    0.000
85 C_2176 75.132 40.037 -39.435 C.2 1 NIL_1    0.000
86 C_2192 91.738 38.831 -32.816 C.2 1 NIL_1    0.000
87 O 74.708 40.413 -40.681 O.3 1 NIL_1    0.000
88 O 92.871 38.147 -32.446 O.3 1 NIL_1    0.000
89 C_2273 74.869 39.455 -41.756 C.3 1 NIL_1    0.000
90 C_2269 94.163 38.546 -32.968 C.3 1 NIL_1    0.000
91 H_22691 94.389 39.571 -32.658 H 1 NIL_1    0.000
92 H_22692 94.156 38.472 -34.059 H 1 NIL_1    0.000
93 H_22693 94.925 37.875 -32.563 H 1 NIL_1    0.000
94 H_22731 74.302 38.549 -41.523 H 1 NIL_1    0.000
95 H_22732 75.925 39.213 -41.899 H 1 NIL_1    0.000
96 H_22733 74.481 39.899 -42.676 H 1 NIL_1    0.000
97 H_2190 92.672 40.394 -33.907 H 1 NIL_1    0.000
98 H_2194 90.535 37.426 -31.820 H 1 NIL_1    0.000
99 H_2178 73.349 40.704 -38.544 H 1 NIL_1    0.000
100 H_2174 77.027 39.333 -40.045 H 1 NIL_1    0.000
101 H_18751 80.486 44.682 -27.505 H 1 NIL_1    0.000
102 H_18752 78.978 45.590 -27.813 H 1 NIL_1    0.000
103 H_18753 80.551 46.431 -27.864 H 1 NIL_1    0.000
104 H_2188 90.630 41.482 -34.444 H 1 NIL_1    0.000
105 H_2196 88.478 38.538 -32.372 H 1 NIL_1    0.000
106 H_2180 74.050 40.126 -36.319 H 1 NIL_1    0.000
107 H_2172 77.714 38.750 -37.835 H 1 NIL_1    0.000
108 H_18731 79.399 44.096 -31.052 H 1 NIL_1    0.000
109 H_18732 78.485 43.964 -29.546 H 1 NIL_1    0.000
110 H_18641 88.322 41.548 -34.540 H 1 NIL_1    0.000
111 H_18642 87.434 40.069 -34.199 H 1 NIL_1    0.000
112 H_18661 75.540 38.770 -34.915 H 1 NIL_1    0.000
113 H_18662 77.111 38.256 -35.549 H 1 NIL_1    0.000
114 H_18701 80.261 42.628 -28.511 H 1 NIL_1    0.000
115 H_18702 79.785 41.889 -30.025 H 1 NIL_1    0.000
116 H_18351 81.234 41.363 -31.556 H 1 NIL_1    0.000
117 H_18352 82.831 42.031 -31.723 H 1 NIL_1    0.000
118 H_22711 84.354 53.748 -42.829 H 1 NIL_1    0.000
119 H_22712 84.839 52.265 -43.688 H 1 NIL_1    0.000
120 H_22713 85.255 52.462 -41.963 H 1 NIL_1    0.000
121 H_18151 85.583 41.583 -29.430 H 1 NIL_1    0.000
122 H_18152 84.287 41.180 -30.549 H 1 NIL_1    0.000
123 H_18811 86.398 43.322 -34.461 H 1 NIL_1    0.000
124 H_18812 86.762 45.067 -34.319 H 1 NIL_1    0.000
125 H_18813 87.200 44.178 -35.808 H 1 NIL_1    0.000
126 H_18251 79.184 41.640 -32.398 H 1 NIL_1    0.000
127 H_18252 80.248 40.861 -33.603 H 1 NIL_1    0.000
128 H_18781 85.654 50.423 -29.786 H 1 NIL_1    0.000
129 H_18782 84.495 51.567 -30.520 H 1 NIL_1    0.000
130 H_18783 86.076 51.273 -31.302 H 1 NIL_1    0.000
131 HP 84.728 43.624 -28.898 H 1 NIL_1    0.000
132 H_18131 85.658 44.465 -32.352 H 1 NIL_1    0.000
133 H_18132 84.283 43.396 -32.705 H 1 NIL_1    0.000
134 H_18271 78.257 43.884 -35.374 H 1 NIL_1    0.000
135 H_18272 79.166 42.768 -36.389 H 1 NIL_1    0.000
136 H_18791 84.534 42.665 -36.007 H 1 NIL_1    0.000
137 H_18792 85.397 43.507 -37.320 H 1 NIL_1    0.000
138 HP 80.184 44.695 -34.524 H 1 NIL_1    0.000
139 H_2210 83.586 54.190 -40.832 H 1 NIL_1    0.000
140 H_2206 81.683 50.453 -41.172 H 1 NIL_1    0.000
141 H_18761 85.775 48.168 -30.740 H 1 NIL_1    0.000
142 H_18762 86.433 48.920 -32.213 H 1 NIL_1    0.000
143 H_18721 83.460 44.957 -37.761 H 1 NIL_1    0.000
144 H_18722 82.952 43.314 -37.750 H 1 NIL_1    0.000
145 H_2212 82.584 54.505 -38.696 H 1 NIL_1    0.000
146 H_2204 80.671 50.784 -39.026 H 1 NIL_1    0.000
147 H_18711 84.742 47.983 -33.585 H 1 NIL_1    0.000
148 H_18712 85.386 46.670 -32.658 H 1 NIL_1    0.000
149 H_18291 82.484 46.123 -30.515 H 1 NIL_1    0.000
150 H_18292 83.570 47.419 -30.020 H 1 NIL_1    0.000
151 H_18401 82.076 45.720 -34.478 H 1 NIL_1    0.000
152 H_18402 81.164 46.153 -35.923 H 1 NIL_1    0.000
153 H_18681 80.924 53.932 -37.105 H 1 NIL_1    0.000
154 H_18682 79.918 52.501 -37.348 H 1 NIL_1    0.000
155 HP 81.038 48.041 -34.346 H 1 NIL_1    0.000
156 H_18181 80.997 50.202 -33.546 H 1 NIL_1    0.000
157 H_18182 82.633 50.108 -32.892 H 1 NIL_1    0.000
158 H_18161 83.540 49.402 -36.674 H 1 NIL_1    0.000
159 H_18162 84.524 49.454 -35.187 H 1 NIL_1    0.000
160 HH 87.326 43.566 -30.293 H 1 NIL_1    0.000
161 HH 77.006 42.954 -33.334 H 1 NIL_1    0.000
162 HH 84.074 51.856 -34.262 H 1 NIL_1    0.000
@<TRIPOS>BOND
1 1 2 1 
2 3 1 1 
3 4 1 1 
4 5 10 1 
5 5 1 1 
6 5 162 1 
7 6 2 1 
8 7 3 1 
9 7 6 1 
10 7 155 1 
11 8 4 1 
12 9 4 2 
13 10 8 1 
14 11 6 1 
15 12 7 1 
16 13 8 1 
17 13 153 1 
18 13 154 1 
19 14 10 2 
20 15 11 2 
21 16 20 1 
22 16 11 1 
23 16 151 1 
24 16 152 1 
25 17 12 2 
26 18 12 1 
27 19 13 1 
28 20 25 1 
29 21 18 1 
30 21 27 1 
31 21 149 1 
32 21 150 1 
33 22 18 1 
34 22 28 1 
35 22 147 1 
36 22 148 1 
37 23 19 2 
38 23 146 1 
39 24 30 2 
40 24 19 1 
41 24 145 1 
42 25 31 1 
43 26 20 1 
44 26 33 1 
45 26 143 1 
46 26 144 1 
47 27 35 1 
48 28 141 1 
49 28 142 1 
50 29 23 1 
51 29 140 1 
52 30 37 1 
53 30 139 1 
54 31 138 1 
55 32 25 2 
56 33 136 1 
57 33 137 1 
58 34 27 2 
59 36 28 1 
60 37 29 2 
61 38 45 1 
62 38 31 1 
63 38 134 1 
64 38 135 1 
65 39 46 1 
66 39 31 1 
67 39 47 1 
68 40 33 1 
69 41 35 1 
70 41 49 1 
71 41 132 1 
72 41 133 1 
73 42 51 1 
74 42 35 1 
75 42 131 1 
76 43 36 1 
77 43 128 1 
78 43 129 1 
79 43 130 1 
80 44 37 1 
81 45 46 1 
82 46 126 1 
83 46 127 1 
84 48 40 1 
85 48 123 1 
86 48 124 1 
87 48 125 1 
88 50 42 1 
89 50 59 2 
90 51 49 1 
91 52 44 1 
92 52 118 1 
93 52 119 1 
94 52 120 1 
95 53 45 1 
96 54 63 1 
97 54 45 1 
98 54 161 1 
99 55 47 2 
100 56 60 1 
101 56 47 1 
102 56 116 1 
103 56 117 1 
104 57 49 1 
105 58 66 1 
106 58 49 1 
107 58 160 1 
108 60 50 1 
109 61 53 1 
110 62 53 2 
111 63 61 1 
112 64 57 1 
113 65 57 2 
114 66 64 1 
115 67 60 1 
116 67 72 1 
117 67 114 1 
118 67 115 1 
119 68 61 1 
120 68 112 1 
121 68 113 1 
122 69 63 2 
123 70 64 1 
124 70 74 1 
125 71 66 2 
126 73 68 1 
127 73 76 2 
128 73 77 1 
129 74 78 1 
130 75 72 1 
131 77 82 2 
132 79 84 1 
133 79 74 2 
134 79 104 1 
135 80 75 1 
136 81 76 1 
137 82 85 1 
138 83 78 2 
139 84 86 2 
140 84 97 1 
141 85 81 2 
142 86 88 1 
143 86 83 1 
144 87 85 1 
145 89 87 1 
146 89 96 1 
147 90 88 1 
148 91 90 1 
149 92 90 1 
150 93 90 1 
151 94 89 1 
152 95 89 1 
153 98 83 1 
154 99 82 1 
155 100 81 1 
156 101 80 1 
157 102 80 1 
158 103 80 1 
159 105 78 1 
160 106 77 1 
161 107 76 1 
162 108 72 1 
163 109 72 1 
164 110 70 1 
165 111 70 1 
166 121 51 1 
167 122 51 1 
168 156 3 1 
169 157 3 1 
170 158 2 1 
171 159 2 1 
@<TRIPOS>SUBSTRUCTURE
1 NIL_1 1 RESIDUE 1 A NIL 1
