@<TRIPOS>MOLECULE
NIL
162 171 1 0 0
POLYMER
CHARGES


@<TRIPOS>ATOM
1 CQ 107.315 76.5014 -6.55383 C.3 1 NIL_1    0.000
2 C_1816 106.033 75.684 -6.753 C.3 1 NIL_1    0.000
3 C_1818 108.472 75.494 -6.453 C.3 1 NIL_1    0.000
4 C_1854 107.203 77.399 -5.349 C.2 1 NIL_1    0.000
5 NH 107.508 77.508 -7.583 N.am 1 NIL_1    0.000
6 N 106.414 74.279 -6.906 N.am 1 NIL_1    0.000
7 CP 107.886 74.148 -6.913 C.3 1 NIL_1    0.000
8 N 107.281 78.682 -5.767 N.am 1 NIL_1    0.000
9 O 107.052 77.037 -4.197 O.2 1 NIL_1    0.000
10 C_1856 107.481 78.765 -7.109 C.2 1 NIL_1    0.000
11 C_1841 105.496 73.278 -6.977 C.2 1 NIL_1    0.000
12 C_1838 108.425 73.769 -8.291 C.2 1 NIL_1    0.000
13 C_1868 107.149 79.800 -4.816 C.3 1 NIL_1    0.000
14 O 107.621 79.762 -7.787 O.2 1 NIL_1    0.000
15 O 104.302 73.512 -6.955 O.2 1 NIL_1    0.000
16 C_1840 105.985 71.847 -7.071 C.3 1 NIL_1    0.000
17 O 108.047 74.388 -9.267 O.2 1 NIL_1    0.000
18 N 109.327 72.743 -8.409 N.am 1 NIL_1    0.000
19 C_1869 107.264 81.229 -5.301 C.2 1 NIL_1    0.000
20 N 105.914 71.071 -5.816 N.am 1 NIL_1    0.000
21 C_1829 109.757 71.838 -7.313 C.3 1 NIL_1    0.000
22 C_1871 109.848 72.308 -9.727 C.3 1 NIL_1    0.000
23 C_2204 108.390 81.923 -5.108 C.2 1 NIL_1    0.000
24 C_2212 106.237 81.825 -5.914 C.2 1 NIL_1    0.000
25 C_1843 105.088 70.001 -5.745 C.2 1 NIL_1    0.000
26 C_1872 106.785 71.521 -4.705 C.3 1 NIL_1    0.000
27 C_1830 110.670 72.462 -6.268 C.2 1 NIL_1    0.000
28 C_1876 111.275 72.801 -10.037 C.3 1 NIL_1    0.000
29 C_2206 108.485 83.188 -5.514 C.2 1 NIL_1    0.000
30 C_2210 106.330 83.091 -6.323 C.2 1 NIL_1    0.000
31 AP 105.608 68.681 -5.160 C.3 1 NIL_1    0.000
32 O 103.970 70.091 -6.219 O.2 1 NIL_1    0.000
33 C_1879 106.207 72.681 -3.864 C.3 1 NIL_1    0.000
34 O 111.184 73.549 -6.454 O.2 1 NIL_1    0.000
35 N 110.899 71.768 -5.114 N.am 1 NIL_1    0.000
36 O 112.244 72.099 -9.227 O.3 1 NIL_1    0.000
37 C_2208 107.455 83.787 -6.117 C.2 1 NIL_1    0.000
38 C_1827 104.865 67.478 -5.778 C.3 1 NIL_1    0.000
39 N 107.048 68.370 -5.398 N.am 1 NIL_1    0.000
40 O 104.928 72.284 -3.329 O.3 1 NIL_1    0.000
41 C_1813 111.694 72.327 -4.012 C.3 1 NIL_1    0.000
42 BP 110.431 70.402 -4.757 C.3 1 NIL_1    0.000
43 C_1878 113.609 72.518 -9.445 C.3 1 NIL_1    0.000
44 O 107.601 85.087 -6.518 O.3 1 NIL_1    0.000
45 AQ 105.717 67.098 -7.001 C.3 1 NIL_1    0.000
46 C_1825 107.131 67.586 -6.649 C.3 1 NIL_1    0.000
47 C_1844 107.951 68.231 -4.381 C.2 1 NIL_1    0.000
48 C_1881 104.218 73.330 -2.638 C.3 1 NIL_1    0.000
49 BQ 111.687 71.328 -2.843 C.3 1 NIL_1    0.000
50 C_1833 110.830 69.322 -5.759 C.2 1 NIL_1    0.000
51 C_1815 111.013 70.055 -3.370 C.3 1 NIL_1    0.000
52 C_2271 106.535 86.006 -6.175 C.3 1 NIL_1    0.000
53 C_1846 105.211 67.669 -8.308 C.2 1 NIL_1    0.000
54 NH 105.641 65.683 -7.330 N.am 1 NIL_1    0.000
55 O 107.679 68.577 -3.248 O.2 1 NIL_1    0.000
56 C_1835 109.323 67.606 -4.637 C.3 1 NIL_1    0.000
57 C_1850 113.074 71.054 -2.310 C.2 1 NIL_1    0.000
58 NH 111.064 71.820 -1.622 N.am 1 NIL_1    0.000
59 O 111.754 69.520 -6.526 O.2 1 NIL_1    0.000
60 N 110.184 68.115 -5.741 N.am 1 NIL_1    0.000
61 N 104.851 66.638 -9.110 N.am 1 NIL_1    0.000
62 O 105.163 68.844 -8.614 O.2 1 NIL_1    0.000
63 C_1848 105.133 65.440 -8.549 C.2 1 NIL_1    0.000
64 N 113.076 71.305 -0.980 N.am 1 NIL_1    0.000
65 O 114.029 70.674 -2.960 O.2 1 NIL_1    0.000
66 C_1852 111.874 71.757 -0.550 C.2 1 NIL_1    0.000
67 C_1870 110.606 67.024 -6.649 C.3 1 NIL_1    0.000
68 C_1866 104.222 66.793 -10.434 C.3 1 NIL_1    0.000
69 O 104.970 64.343 -9.044 O.2 1 NIL_1    0.000
70 C_1864 114.260 71.143 -0.115 C.3 1 NIL_1    0.000
71 O 111.566 72.055 0.587 O.2 1 NIL_1    0.000
72 C_1873 111.650 66.080 -6.009 C.3 1 NIL_1    0.000
73 C_1867 102.904 67.539 -10.339 C.2 1 NIL_1    0.000
74 C_1865 114.798 69.724 -0.046 C.2 1 NIL_1    0.000
75 O 112.900 66.771 -5.782 O.3 1 NIL_1    0.000
76 C_2172 101.822 66.962 -9.805 C.2 1 NIL_1    0.000
77 C_2180 102.809 68.798 -10.775 C.2 1 NIL_1    0.000
78 C_2196 114.092 68.750 0.539 C.2 1 NIL_1    0.000
79 C_2188 115.996 69.425 -0.556 C.2 1 NIL_1    0.000
80 C_1875 113.756 66.922 -6.937 C.3 1 NIL_1    0.000
81 C_2174 100.670 67.628 -9.710 C.2 1 NIL_1    0.000
82 C_2178 101.660 69.466 -10.679 C.2 1 NIL_1    0.000
83 C_2194 114.576 67.510 0.611 C.2 1 NIL_1    0.000
84 C_2190 116.483 68.186 -0.484 C.2 1 NIL_1    0.000
85 C_2176 100.577 68.890 -10.153 C.2 1 NIL_1    0.000
86 C_2192 115.776 67.209 0.104 C.2 1 NIL_1    0.000
87 O 99.427 69.632 -10.077 O.3 1 NIL_1    0.000
88 O 116.204 65.908 0.217 O.3 1 NIL_1    0.000
89 C_2273 98.162 68.961 -10.295 C.3 1 NIL_1    0.000
90 C_2269 117.508 65.529 -0.292 C.3 1 NIL_1    0.000
91 H_22691 117.636 64.451 -0.163 H 1 NIL_1    0.000
92 H_22692 118.287 66.056 0.266 H 1 NIL_1    0.000
93 H_22693 117.572 65.774 -1.355 H 1 NIL_1    0.000
94 H_22731 97.373 69.717 -10.346 H 1 NIL_1    0.000
95 H_22732 97.948 68.281 -9.466 H 1 NIL_1    0.000
96 H_22733 98.197 68.410 -11.239 H 1 NIL_1    0.000
97 H_2190 117.464 67.996 -0.912 H 1 NIL_1    0.000
98 H_2194 113.984 66.734 1.093 H 1 NIL_1    0.000
99 H_2178 101.607 70.493 -11.037 H 1 NIL_1    0.000
100 H_2174 99.813 67.130 -9.260 H 1 NIL_1    0.000
101 H_18751 113.231 67.466 -7.726 H 1 NIL_1    0.000
102 H_18752 114.043 65.932 -7.303 H 1 NIL_1    0.000
103 H_18753 114.650 67.477 -6.642 H 1 NIL_1    0.000
104 H_2188 116.589 70.200 -1.037 H 1 NIL_1    0.000
105 H_2196 113.115 68.968 0.963 H 1 NIL_1    0.000
106 H_2180 103.677 69.291 -11.207 H 1 NIL_1    0.000
107 H_2172 101.879 65.940 -9.436 H 1 NIL_1    0.000
108 H_18731 111.279 65.722 -5.045 H 1 NIL_1    0.000
109 H_18732 111.832 65.217 -6.657 H 1 NIL_1    0.000
110 H_18641 114.018 71.476 0.897 H 1 NIL_1    0.000
111 H_18642 115.038 71.810 -0.495 H 1 NIL_1    0.000
112 H_18661 104.045 65.807 -10.872 H 1 NIL_1    0.000
113 H_18662 104.917 67.324 -11.091 H 1 NIL_1    0.000
114 H_18701 111.006 67.443 -7.576 H 1 NIL_1    0.000
115 H_18702 109.735 66.429 -6.924 H 1 NIL_1    0.000
116 H_18351 109.888 67.667 -3.705 H 1 NIL_1    0.000
117 H_18352 109.124 66.542 -4.795 H 1 NIL_1    0.000
118 H_22711 106.327 85.941 -5.103 H 1 NIL_1    0.000
119 H_22712 105.635 85.774 -6.749 H 1 NIL_1    0.000
120 H_22713 106.863 87.020 -6.418 H 1 NIL_1    0.000
121 H_18151 110.226 69.712 -2.695 H 1 NIL_1    0.000
122 H_18152 111.749 69.250 -3.450 H 1 NIL_1    0.000
123 H_18811 103.990 74.136 -3.340 H 1 NIL_1    0.000
124 H_18812 104.838 73.710 -1.821 H 1 NIL_1    0.000
125 H_18813 103.287 72.923 -2.239 H 1 NIL_1    0.000
126 H_18251 107.748 66.702 -6.486 H 1 NIL_1    0.000
127 H_18252 107.563 68.188 -7.453 H 1 NIL_1    0.000
128 H_18781 113.719 73.564 -9.148 H 1 NIL_1    0.000
129 H_18782 113.856 72.407 -10.504 H 1 NIL_1    0.000
130 H_18783 114.279 71.896 -8.847 H 1 NIL_1    0.000
131 HP 109.343 70.424 -4.700 H 1 NIL_1    0.000
132 H_18131 111.271 73.288 -3.706 H 1 NIL_1    0.000
133 H_18132 112.714 72.488 -4.372 H 1 NIL_1    0.000
134 H_18271 104.882 66.659 -5.055 H 1 NIL_1    0.000
135 H_18272 103.820 67.667 -6.034 H 1 NIL_1    0.000
136 H_18791 106.882 72.918 -3.038 H 1 NIL_1    0.000
137 H_18792 106.072 73.581 -4.465 H 1 NIL_1    0.000
138 HP 105.398 68.733 -4.088 H 1 NIL_1    0.000
139 H_2210 105.481 83.545 -6.827 H 1 NIL_1    0.000
140 H_2206 109.407 83.737 -5.344 H 1 NIL_1    0.000
141 H_18761 111.499 72.596 -11.088 H 1 NIL_1    0.000
142 H_18762 111.357 73.875 -9.851 H 1 NIL_1    0.000
143 H_18721 107.755 71.811 -5.095 H 1 NIL_1    0.000
144 H_18722 106.955 70.698 -4.018 H 1 NIL_1    0.000
145 H_2212 105.316 81.272 -6.087 H 1 NIL_1    0.000
146 H_2204 109.239 81.457 -4.612 H 1 NIL_1    0.000
147 H_18711 109.194 72.688 -10.517 H 1 NIL_1    0.000
148 H_18712 109.817 71.217 -9.797 H 1 NIL_1    0.000
149 H_18291 110.301 70.998 -7.744 H 1 NIL_1    0.000
150 H_18292 108.889 71.428 -6.801 H 1 NIL_1    0.000
151 H_18401 105.360 71.369 -7.830 H 1 NIL_1    0.000
152 H_18402 106.997 71.815 -7.455 H 1 NIL_1    0.000
153 H_18681 107.904 79.638 -4.041 H 1 NIL_1    0.000
154 H_18682 106.176 79.692 -4.327 H 1 NIL_1    0.000
155 HP 108.175 73.402 -6.183 H 1 NIL_1    0.000
156 H_18181 108.816 75.400 -5.420 H 1 NIL_1    0.000
157 H_18182 109.324 75.800 -7.066 H 1 NIL_1    0.000
158 H_18161 105.372 75.781 -5.887 H 1 NIL_1    0.000
159 H_18162 105.501 76.015 -7.650 H 1 NIL_1    0.000
160 HH 110.096 72.101 -1.579 H 1 NIL_1    0.000
161 HH 105.962 64.964 -6.699 H 1 NIL_1    0.000
162 HH 107.662 77.272 -8.552 H 1 NIL_1    0.000
@<TRIPOS>BOND
1 1 2 1 
2 3 1 1 
3 4 1 1 
4 5 10 1 
5 5 1 1 
6 5 162 1 
7 6 2 1 
8 7 3 1 
9 7 6 1 
10 7 155 1 
11 8 4 1 
12 9 4 2 
13 10 8 1 
14 11 6 1 
15 12 7 1 
16 13 8 1 
17 13 153 1 
18 13 154 1 
19 14 10 2 
20 15 11 2 
21 16 20 1 
22 16 11 1 
23 16 151 1 
24 16 152 1 
25 17 12 2 
26 18 12 1 
27 19 13 1 
28 20 25 1 
29 21 18 1 
30 21 27 1 
31 21 149 1 
32 21 150 1 
33 22 18 1 
34 22 28 1 
35 22 147 1 
36 22 148 1 
37 23 19 2 
38 23 146 1 
39 24 30 2 
40 24 19 1 
41 24 145 1 
42 25 31 1 
43 26 20 1 
44 26 33 1 
45 26 143 1 
46 26 144 1 
47 27 35 1 
48 28 141 1 
49 28 142 1 
50 29 23 1 
51 29 140 1 
52 30 37 1 
53 30 139 1 
54 31 138 1 
55 32 25 2 
56 33 136 1 
57 33 137 1 
58 34 27 2 
59 36 28 1 
60 37 29 2 
61 38 45 1 
62 38 31 1 
63 38 134 1 
64 38 135 1 
65 39 46 1 
66 39 31 1 
67 39 47 1 
68 40 33 1 
69 41 35 1 
70 41 49 1 
71 41 132 1 
72 41 133 1 
73 42 51 1 
74 42 35 1 
75 42 131 1 
76 43 36 1 
77 43 128 1 
78 43 129 1 
79 43 130 1 
80 44 37 1 
81 45 46 1 
82 46 126 1 
83 46 127 1 
84 48 40 1 
85 48 123 1 
86 48 124 1 
87 48 125 1 
88 50 42 1 
89 50 59 2 
90 51 49 1 
91 52 44 1 
92 52 118 1 
93 52 119 1 
94 52 120 1 
95 53 45 1 
96 54 63 1 
97 54 45 1 
98 54 161 1 
99 55 47 2 
100 56 60 1 
101 56 47 1 
102 56 116 1 
103 56 117 1 
104 57 49 1 
105 58 66 1 
106 58 49 1 
107 58 160 1 
108 60 50 1 
109 61 53 1 
110 62 53 2 
111 63 61 1 
112 64 57 1 
113 65 57 2 
114 66 64 1 
115 67 60 1 
116 67 72 1 
117 67 114 1 
118 67 115 1 
119 68 61 1 
120 68 112 1 
121 68 113 1 
122 69 63 2 
123 70 64 1 
124 70 74 1 
125 71 66 2 
126 73 68 1 
127 73 76 2 
128 73 77 1 
129 74 78 1 
130 75 72 1 
131 77 82 2 
132 79 84 1 
133 79 74 2 
134 79 104 1 
135 80 75 1 
136 81 76 1 
137 82 85 1 
138 83 78 2 
139 84 86 2 
140 84 97 1 
141 85 81 2 
142 86 88 1 
143 86 83 1 
144 87 85 1 
145 89 87 1 
146 89 96 1 
147 90 88 1 
148 91 90 1 
149 92 90 1 
150 93 90 1 
151 94 89 1 
152 95 89 1 
153 98 83 1 
154 99 82 1 
155 100 81 1 
156 101 80 1 
157 102 80 1 
158 103 80 1 
159 105 78 1 
160 106 77 1 
161 107 76 1 
162 108 72 1 
163 109 72 1 
164 110 70 1 
165 111 70 1 
166 121 51 1 
167 122 51 1 
168 156 3 1 
169 157 3 1 
170 158 2 1 
171 159 2 1 
@<TRIPOS>SUBSTRUCTURE
1 NIL_1 1 RESIDUE 1 A NIL 1
