@<TRIPOS>MOLECULE
NIL
162 171 1 0 0
POLYMER
CHARGES


@<TRIPOS>ATOM
1 CQ 108.078 76.7805 -7.20632 C.3 1 NIL_1    0.000
2 C_1816 108.080 75.379 -6.584 C.3 1 NIL_1    0.000
3 C_1818 109.537 77.229 -7.112 C.3 1 NIL_1    0.000
4 C_1854 107.157 77.731 -6.482 C.2 1 NIL_1    0.000
5 NH 107.500 76.854 -8.539 N.am 1 NIL_1    0.000
6 N 109.239 75.303 -5.678 N.am 1 NIL_1    0.000
7 CP 110.030 76.549 -5.820 C.3 1 NIL_1    0.000
8 N 106.276 78.225 -7.383 N.am 1 NIL_1    0.000
9 O 107.206 78.030 -5.303 O.2 1 NIL_1    0.000
10 C_1856 106.462 77.703 -8.619 C.2 1 NIL_1    0.000
11 C_1841 109.438 74.333 -4.742 C.2 1 NIL_1    0.000
12 C_1838 111.548 76.416 -5.727 C.2 1 NIL_1    0.000
13 C_1868 105.348 79.324 -7.083 C.3 1 NIL_1    0.000
14 O 105.832 77.959 -9.626 O.2 1 NIL_1    0.000
15 O 110.352 74.409 -3.944 O.2 1 NIL_1    0.000
16 C_1840 108.488 73.130 -4.714 C.3 1 NIL_1    0.000
17 O 112.139 76.831 -4.747 O.2 1 NIL_1    0.000
18 N 112.213 75.758 -6.714 N.am 1 NIL_1    0.000
19 C_1869 106.166 80.579 -6.848 C.2 1 NIL_1    0.000
20 N 107.711 72.918 -3.461 N.am 1 NIL_1    0.000
21 C_1829 113.063 74.604 -6.343 C.3 1 NIL_1    0.000
22 C_1871 112.824 76.541 -7.822 C.3 1 NIL_1    0.000
23 C_2204 106.923 81.100 -7.821 C.2 1 NIL_1    0.000
24 C_2212 106.174 81.164 -5.646 C.2 1 NIL_1    0.000
25 C_1843 106.988 71.794 -3.165 C.2 1 NIL_1    0.000
26 C_1872 107.561 74.115 -2.598 C.3 1 NIL_1    0.000
27 C_1830 112.272 73.321 -6.103 C.2 1 NIL_1    0.000
28 C_1876 113.646 77.771 -7.368 C.3 1 NIL_1    0.000
29 C_2206 107.676 82.176 -7.596 C.2 1 NIL_1    0.000
30 C_2210 106.926 82.240 -5.419 C.2 1 NIL_1    0.000
31 AP 106.972 70.563 -4.072 C.3 1 NIL_1    0.000
32 O 106.325 71.745 -2.145 O.2 1 NIL_1    0.000
33 C_1879 108.468 74.025 -1.358 C.3 1 NIL_1    0.000
34 O 111.299 73.060 -6.787 O.2 1 NIL_1    0.000
35 N 112.691 72.472 -5.119 N.am 1 NIL_1    0.000
36 O 114.631 77.372 -6.387 O.3 1 NIL_1    0.000
37 C_2208 107.693 82.750 -6.386 C.2 1 NIL_1    0.000
38 C_1827 106.006 70.759 -5.254 C.3 1 NIL_1    0.000
39 N 108.233 69.999 -4.611 N.am 1 NIL_1    0.000
40 O 108.510 75.320 -0.727 O.3 1 NIL_1    0.000
41 C_1813 113.744 72.755 -4.123 C.3 1 NIL_1    0.000
42 BP 112.042 71.183 -4.765 C.3 1 NIL_1    0.000
43 C_1878 115.275 78.454 -5.680 C.3 1 NIL_1    0.000
44 O 108.466 83.842 -6.103 O.3 1 NIL_1    0.000
45 AQ 106.494 69.729 -6.273 C.3 1 NIL_1    0.000
46 C_1825 107.997 69.593 -6.002 C.3 1 NIL_1    0.000
47 C_1844 109.331 69.674 -3.875 C.2 1 NIL_1    0.000
48 C_1881 109.299 75.378 0.478 C.3 1 NIL_1    0.000
49 BQ 113.549 71.749 -2.978 C.3 1 NIL_1    0.000
50 C_1833 111.859 70.197 -5.914 C.2 1 NIL_1    0.000
51 C_1815 112.908 70.549 -3.661 C.3 1 NIL_1    0.000
52 C_2271 109.850 83.781 -6.530 C.3 1 NIL_1    0.000
53 C_1846 106.175 70.081 -7.704 C.2 1 NIL_1    0.000
54 NH 105.785 68.462 -6.171 N.am 1 NIL_1    0.000
55 O 109.481 70.103 -2.747 O.2 1 NIL_1    0.000
56 C_1835 110.359 68.712 -4.477 C.3 1 NIL_1    0.000
57 C_1850 114.781 71.366 -2.195 C.2 1 NIL_1    0.000
58 NH 112.722 72.260 -1.895 N.am 1 NIL_1    0.000
59 O 112.471 70.352 -6.955 O.2 1 NIL_1    0.000
60 N 111.066 69.097 -5.730 N.am 1 NIL_1    0.000
61 N 105.395 69.099 -8.211 N.am 1 NIL_1    0.000
62 O 106.551 71.071 -8.302 O.2 1 NIL_1    0.000
63 C_1848 105.152 68.122 -7.304 C.2 1 NIL_1    0.000
64 N 114.509 71.547 -0.880 N.am 1 NIL_1    0.000
65 O 115.824 70.942 -2.656 O.2 1 NIL_1    0.000
66 C_1852 113.288 72.104 -0.687 C.2 1 NIL_1    0.000
67 C_1870 111.045 68.005 -6.732 C.3 1 NIL_1    0.000
68 C_1866 104.833 69.116 -9.570 C.3 1 NIL_1    0.000
69 O 104.482 67.122 -7.465 O.2 1 NIL_1    0.000
70 C_1864 115.408 71.143 0.217 C.3 1 NIL_1    0.000
71 O 112.781 72.413 0.373 O.2 1 NIL_1    0.000
72 C_1873 112.048 66.872 -6.419 C.3 1 NIL_1    0.000
73 C_1867 103.439 69.710 -9.546 C.2 1 NIL_1    0.000
74 C_1865 115.589 69.640 0.330 C.2 1 NIL_1    0.000
75 O 113.389 67.401 -6.309 O.3 1 NIL_1    0.000
76 C_2172 102.377 68.924 -9.348 C.2 1 NIL_1    0.000
77 C_2180 103.246 71.024 -9.707 C.2 1 NIL_1    0.000
78 C_2196 114.733 68.894 1.035 C.2 1 NIL_1    0.000
79 C_2188 116.622 69.037 -0.268 C.2 1 NIL_1    0.000
80 C_1875 114.394 66.413 -5.991 C.3 1 NIL_1    0.000
81 C_2174 101.149 69.438 -9.305 C.2 1 NIL_1    0.000
82 C_2178 102.017 71.541 -9.666 C.2 1 NIL_1    0.000
83 C_2194 114.910 67.575 1.144 C.2 1 NIL_1    0.000
84 C_2190 116.802 67.721 -0.160 C.2 1 NIL_1    0.000
85 C_2176 100.956 70.750 -9.456 C.2 1 NIL_1    0.000
86 C_2192 115.953 66.976 0.559 C.2 1 NIL_1    0.000
87 O 99.673 71.224 -9.407 O.3 1 NIL_1    0.000
88 O 116.101 65.621 0.701 O.3 1 NIL_1    0.000
89 C_2273 99.438 72.425 -8.634 C.3 1 NIL_1    0.000
90 C_2269 117.434 65.122 0.981 C.3 1 NIL_1    0.000
91 H_22691 118.098 65.322 0.136 H 1 NIL_1    0.000
92 H_22692 117.381 64.041 1.140 H 1 NIL_1    0.000
93 H_22693 117.820 65.603 1.884 H 1 NIL_1    0.000
94 H_22731 98.359 72.596 -8.578 H 1 NIL_1    0.000
95 H_22732 99.912 73.281 -9.119 H 1 NIL_1    0.000
96 H_22733 99.837 72.293 -7.624 H 1 NIL_1    0.000
97 H_2190 117.647 67.268 -0.671 H 1 NIL_1    0.000
98 H_2194 114.200 66.985 1.719 H 1 NIL_1    0.000
99 H_2178 101.893 72.611 -9.808 H 1 NIL_1    0.000
100 H_2174 100.301 68.780 -9.137 H 1 NIL_1    0.000
101 H_18751 114.165 65.965 -5.021 H 1 NIL_1    0.000
102 H_18752 115.373 66.896 -5.949 H 1 NIL_1    0.000
103 H_18753 114.402 65.638 -6.764 H 1 NIL_1    0.000
104 H_2188 117.329 69.624 -0.850 H 1 NIL_1    0.000
105 H_2196 113.885 69.361 1.529 H 1 NIL_1    0.000
106 H_2180 104.096 71.682 -9.872 H 1 NIL_1    0.000
107 H_2172 102.511 67.853 -9.215 H 1 NIL_1    0.000
108 H_18731 111.783 66.385 -5.477 H 1 NIL_1    0.000
109 H_18732 112.030 66.133 -7.224 H 1 NIL_1    0.000
110 H_18641 115.009 71.522 1.162 H 1 NIL_1    0.000
111 H_18642 116.383 71.612 0.062 H 1 NIL_1    0.000
112 H_18661 104.802 68.092 -9.954 H 1 NIL_1    0.000
113 H_18662 105.483 69.698 -10.229 H 1 NIL_1    0.000
114 H_18701 111.249 68.407 -7.727 H 1 NIL_1    0.000
115 H_18702 110.046 67.566 -6.772 H 1 NIL_1    0.000
116 H_18351 111.097 68.471 -3.712 H 1 NIL_1    0.000
117 H_18352 109.799 67.789 -4.650 H 1 NIL_1    0.000
118 H_22711 110.305 82.857 -6.162 H 1 NIL_1    0.000
119 H_22712 110.384 84.640 -6.116 H 1 NIL_1    0.000
120 H_22713 109.906 83.817 -7.621 H 1 NIL_1    0.000
121 H_18151 112.336 69.954 -2.948 H 1 NIL_1    0.000
122 H_18152 113.681 69.916 -4.108 H 1 NIL_1    0.000
123 H_18811 110.300 74.982 0.281 H 1 NIL_1    0.000
124 H_18812 108.811 74.786 1.257 H 1 NIL_1    0.000
125 H_18813 109.372 76.420 0.798 H 1 NIL_1    0.000
126 H_18251 108.304 68.560 -6.167 H 1 NIL_1    0.000
127 H_18252 108.573 70.261 -6.649 H 1 NIL_1    0.000
128 H_18781 115.789 79.104 -6.393 H 1 NIL_1    0.000
129 H_18782 116.000 78.032 -4.979 H 1 NIL_1    0.000
130 H_18783 114.525 79.027 -5.126 H 1 NIL_1    0.000
131 HP 111.063 71.433 -4.360 H 1 NIL_1    0.000
132 H_18131 113.651 73.772 -3.737 H 1 NIL_1    0.000
133 H_18132 114.720 72.624 -4.597 H 1 NIL_1    0.000
134 H_18271 104.965 70.594 -4.964 H 1 NIL_1    0.000
135 H_18272 106.093 71.766 -5.666 H 1 NIL_1    0.000
136 H_18791 108.075 73.282 -0.658 H 1 NIL_1    0.000
137 H_18792 109.483 73.743 -1.648 H 1 NIL_1    0.000
138 HP 106.549 69.767 -3.451 H 1 NIL_1    0.000
139 H_2210 106.922 82.695 -4.431 H 1 NIL_1    0.000
140 H_2206 108.279 82.575 -8.408 H 1 NIL_1    0.000
141 H_18761 114.161 78.217 -8.224 H 1 NIL_1    0.000
142 H_18762 112.979 78.517 -6.925 H 1 NIL_1    0.000
143 H_18721 106.522 74.191 -2.266 H 1 NIL_1    0.000
144 H_18722 107.767 75.036 -3.147 H 1 NIL_1    0.000
145 H_2212 105.574 80.752 -4.838 H 1 NIL_1    0.000
146 H_2204 106.941 80.637 -8.805 H 1 NIL_1    0.000
147 H_18711 112.033 76.899 -8.479 H 1 NIL_1    0.000
148 H_18712 113.459 75.900 -8.438 H 1 NIL_1    0.000
149 H_18291 113.630 74.876 -5.454 H 1 NIL_1    0.000
150 H_18292 113.777 74.369 -7.136 H 1 NIL_1    0.000
151 H_18401 107.791 73.168 -5.550 H 1 NIL_1    0.000
152 H_18402 109.138 72.275 -4.882 H 1 NIL_1    0.000
153 H_18681 104.772 79.064 -6.190 H 1 NIL_1    0.000
154 H_18682 104.650 79.470 -7.912 H 1 NIL_1    0.000
155 HP 109.749 77.196 -4.982 H 1 NIL_1    0.000
156 H_18181 109.659 78.315 -7.091 H 1 NIL_1    0.000
157 H_18182 110.052 76.829 -7.983 H 1 NIL_1    0.000
158 H_18161 107.149 75.201 -6.038 H 1 NIL_1    0.000
159 H_18162 108.206 74.622 -7.362 H 1 NIL_1    0.000
160 HH 111.798 72.638 -2.043 H 1 NIL_1    0.000
161 HH 105.734 67.931 -5.314 H 1 NIL_1    0.000
162 HH 107.890 76.362 -9.328 H 1 NIL_1    0.000
@<TRIPOS>BOND
1 1 2 1 
2 3 1 1 
3 4 1 1 
4 5 10 1 
5 5 1 1 
6 5 162 1 
7 6 2 1 
8 7 3 1 
9 7 6 1 
10 7 155 1 
11 8 4 1 
12 9 4 2 
13 10 8 1 
14 11 6 1 
15 12 7 1 
16 13 8 1 
17 13 153 1 
18 13 154 1 
19 14 10 2 
20 15 11 2 
21 16 20 1 
22 16 11 1 
23 16 151 1 
24 16 152 1 
25 17 12 2 
26 18 12 1 
27 19 13 1 
28 20 25 1 
29 21 18 1 
30 21 27 1 
31 21 149 1 
32 21 150 1 
33 22 18 1 
34 22 28 1 
35 22 147 1 
36 22 148 1 
37 23 19 2 
38 23 146 1 
39 24 30 2 
40 24 19 1 
41 24 145 1 
42 25 31 1 
43 26 20 1 
44 26 33 1 
45 26 143 1 
46 26 144 1 
47 27 35 1 
48 28 141 1 
49 28 142 1 
50 29 23 1 
51 29 140 1 
52 30 37 1 
53 30 139 1 
54 31 138 1 
55 32 25 2 
56 33 136 1 
57 33 137 1 
58 34 27 2 
59 36 28 1 
60 37 29 2 
61 38 45 1 
62 38 31 1 
63 38 134 1 
64 38 135 1 
65 39 46 1 
66 39 31 1 
67 39 47 1 
68 40 33 1 
69 41 35 1 
70 41 49 1 
71 41 132 1 
72 41 133 1 
73 42 51 1 
74 42 35 1 
75 42 131 1 
76 43 36 1 
77 43 128 1 
78 43 129 1 
79 43 130 1 
80 44 37 1 
81 45 46 1 
82 46 126 1 
83 46 127 1 
84 48 40 1 
85 48 123 1 
86 48 124 1 
87 48 125 1 
88 50 42 1 
89 50 59 2 
90 51 49 1 
91 52 44 1 
92 52 118 1 
93 52 119 1 
94 52 120 1 
95 53 45 1 
96 54 63 1 
97 54 45 1 
98 54 161 1 
99 55 47 2 
100 56 60 1 
101 56 47 1 
102 56 116 1 
103 56 117 1 
104 57 49 1 
105 58 66 1 
106 58 49 1 
107 58 160 1 
108 60 50 1 
109 61 53 1 
110 62 53 2 
111 63 61 1 
112 64 57 1 
113 65 57 2 
114 66 64 1 
115 67 60 1 
116 67 72 1 
117 67 114 1 
118 67 115 1 
119 68 61 1 
120 68 112 1 
121 68 113 1 
122 69 63 2 
123 70 64 1 
124 70 74 1 
125 71 66 2 
126 73 68 1 
127 73 76 2 
128 73 77 1 
129 74 78 1 
130 75 72 1 
131 77 82 2 
132 79 84 1 
133 79 74 2 
134 79 104 1 
135 80 75 1 
136 81 76 1 
137 82 85 1 
138 83 78 2 
139 84 86 2 
140 84 97 1 
141 85 81 2 
142 86 88 1 
143 86 83 1 
144 87 85 1 
145 89 87 1 
146 89 96 1 
147 90 88 1 
148 91 90 1 
149 92 90 1 
150 93 90 1 
151 94 89 1 
152 95 89 1 
153 98 83 1 
154 99 82 1 
155 100 81 1 
156 101 80 1 
157 102 80 1 
158 103 80 1 
159 105 78 1 
160 106 77 1 
161 107 76 1 
162 108 72 1 
163 109 72 1 
164 110 70 1 
165 111 70 1 
166 121 51 1 
167 122 51 1 
168 156 3 1 
169 157 3 1 
170 158 2 1 
171 159 2 1 
@<TRIPOS>SUBSTRUCTURE
1 NIL_1 1 RESIDUE 1 A NIL 1
