@<TRIPOS>MOLECULE
NIL
162 171 1 0 0
POLYMER
CHARGES


@<TRIPOS>ATOM
1 CQ 111.539 82.2513 -1.11369 C.3 1 NIL_1    0.000
2 C_1816 110.380 81.293 -1.420 C.3 1 NIL_1    0.000
3 C_1818 112.571 81.390 -0.374 C.3 1 NIL_1    0.000
4 C_1854 111.112 83.465 -0.328 C.2 1 NIL_1    0.000
5 NH 112.089 82.908 -2.292 N.am 1 NIL_1    0.000
6 N 110.910 79.926 -1.325 N.am 1 NIL_1    0.000
7 CP 112.331 79.970 -0.914 C.3 1 NIL_1    0.000
8 N 111.484 84.563 -1.022 N.am 1 NIL_1    0.000
9 O 110.523 83.460 0.737 O.2 1 NIL_1    0.000
10 C_1856 112.071 84.248 -2.202 C.2 1 NIL_1    0.000
11 C_1841 110.144 78.825 -1.541 C.2 1 NIL_1    0.000
12 C_1838 113.289 79.675 -2.069 C.2 1 NIL_1    0.000
13 C_1868 111.258 85.940 -0.558 C.3 1 NIL_1    0.000
14 O 112.499 85.022 -3.035 O.2 1 NIL_1    0.000
15 O 109.000 78.929 -1.943 O.2 1 NIL_1    0.000
16 C_1840 110.747 77.454 -1.279 C.3 1 NIL_1    0.000
17 O 112.924 79.809 -3.222 O.2 1 NIL_1    0.000
18 N 114.586 79.352 -1.777 N.am 1 NIL_1    0.000
19 C_1869 110.094 86.594 -1.274 C.2 1 NIL_1    0.000
20 N 109.930 76.552 -0.431 N.am 1 NIL_1    0.000
21 C_1829 115.098 79.009 -0.427 C.3 1 NIL_1    0.000
22 C_1871 115.672 79.602 -2.752 C.3 1 NIL_1    0.000
23 C_2204 110.297 87.602 -2.128 C.2 1 NIL_1    0.000
24 C_2212 108.842 86.174 -1.067 C.2 1 NIL_1    0.000
25 C_1843 109.917 75.212 -0.683 C.2 1 NIL_1    0.000
26 C_1872 109.320 77.213 0.754 C.3 1 NIL_1    0.000
27 C_1830 114.763 77.605 0.069 C.2 1 NIL_1    0.000
28 C_1876 116.315 80.991 -2.523 C.3 1 NIL_1    0.000
29 C_2206 109.275 88.183 -2.758 C.2 1 NIL_1    0.000
30 C_2210 107.818 86.749 -1.698 C.2 1 NIL_1    0.000
31 AP 109.322 74.247 0.343 C.3 1 NIL_1    0.000
32 O 110.373 74.777 -1.726 O.2 1 NIL_1    0.000
33 C_1879 110.319 77.836 1.756 C.3 1 NIL_1    0.000
34 O 113.818 77.440 0.815 O.2 1 NIL_1    0.000
35 N 115.552 76.554 -0.292 N.am 1 NIL_1    0.000
36 O 117.445 81.202 -3.401 O.3 1 NIL_1    0.000
37 C_2208 108.020 87.761 -2.546 C.2 1 NIL_1    0.000
38 C_1827 107.817 74.032 0.073 C.3 1 NIL_1    0.000
39 N 109.994 72.935 0.233 N.am 1 NIL_1    0.000
40 O 111.107 76.819 2.406 O.3 1 NIL_1    0.000
41 C_1813 116.830 76.619 -1.029 C.3 1 NIL_1    0.000
42 BP 115.399 75.180 0.249 C.3 1 NIL_1    0.000
43 C_1878 117.163 81.384 -4.806 C.3 1 NIL_1    0.000
44 O 106.921 88.301 -3.161 O.3 1 NIL_1    0.000
45 AQ 107.681 72.519 -0.171 C.3 1 NIL_1    0.000
46 C_1825 109.100 72.035 -0.504 C.3 1 NIL_1    0.000
47 C_1844 111.307 72.690 0.507 C.2 1 NIL_1    0.000
48 C_1881 111.957 77.330 3.458 C.3 1 NIL_1    0.000
49 BQ 117.606 75.365 -0.598 C.3 1 NIL_1    0.000
50 C_1833 113.992 74.591 0.124 C.2 1 NIL_1    0.000
51 C_1815 116.487 74.329 -0.433 C.3 1 NIL_1    0.000
52 C_2271 106.963 89.687 -3.578 C.3 1 NIL_1    0.000
53 C_1846 106.645 72.166 -1.212 C.2 1 NIL_1    0.000
54 NH 107.127 71.809 0.969 N.am 1 NIL_1    0.000
55 O 111.853 71.670 0.135 O.2 1 NIL_1    0.000
56 C_1835 112.033 73.724 1.359 C.3 1 NIL_1    0.000
57 C_1850 118.750 74.955 -1.498 C.2 1 NIL_1    0.000
58 NH 118.347 75.573 0.640 N.am 1 NIL_1    0.000
59 O 113.313 74.832 -0.856 O.2 1 NIL_1    0.000
60 N 113.492 73.840 1.154 N.am 1 NIL_1    0.000
61 N 105.712 71.372 -0.626 N.am 1 NIL_1    0.000
62 O 106.642 72.549 -2.367 O.2 1 NIL_1    0.000
63 C_1848 105.990 71.154 0.683 C.2 1 NIL_1    0.000
64 N 119.879 74.905 -0.745 N.am 1 NIL_1    0.000
65 O 118.681 74.715 -2.688 O.2 1 NIL_1    0.000
66 C_1852 119.650 75.276 0.537 C.2 1 NIL_1    0.000
67 C_1870 114.255 73.399 2.340 C.3 1 NIL_1    0.000
68 C_1866 104.487 70.857 -1.270 C.3 1 NIL_1    0.000
69 O 105.338 70.497 1.470 O.2 1 NIL_1    0.000
70 C_1864 121.207 74.499 -1.243 C.3 1 NIL_1    0.000
71 O 120.462 75.343 1.439 O.2 1 NIL_1    0.000
72 C_1873 114.144 74.411 3.499 C.3 1 NIL_1    0.000
73 C_1867 104.518 70.582 -2.761 C.2 1 NIL_1    0.000
74 C_1865 121.286 73.126 -1.887 C.2 1 NIL_1    0.000
75 O 115.127 74.125 4.515 O.3 1 NIL_1    0.000
76 C_2172 105.226 69.560 -3.247 C.2 1 NIL_1    0.000
77 C_2180 103.832 71.351 -3.612 C.2 1 NIL_1    0.000
78 C_2196 122.071 72.932 -2.950 C.2 1 NIL_1    0.000
79 C_2188 120.600 72.086 -1.401 C.2 1 NIL_1    0.000
80 C_1875 115.135 75.081 5.599 C.3 1 NIL_1    0.000
81 C_2174 105.242 69.306 -4.557 C.2 1 NIL_1    0.000
82 C_2178 103.847 71.100 -4.924 C.2 1 NIL_1    0.000
83 C_2194 122.166 71.728 -3.517 C.2 1 NIL_1    0.000
84 C_2190 120.690 70.883 -1.968 C.2 1 NIL_1    0.000
85 C_2176 104.556 70.070 -5.410 C.2 1 NIL_1    0.000
86 C_2192 121.481 70.688 -3.033 C.2 1 NIL_1    0.000
87 O 104.616 69.735 -6.741 O.3 1 NIL_1    0.000
88 O 121.637 69.477 -3.664 O.3 1 NIL_1    0.000
89 C_2273 104.083 70.640 -7.738 C.3 1 NIL_1    0.000
90 C_2269 121.056 68.289 -3.074 C.3 1 NIL_1    0.000
91 H_22691 121.430 68.167 -2.054 H 1 NIL_1    0.000
92 H_22692 121.344 67.421 -3.673 H 1 NIL_1    0.000
93 H_22693 119.966 68.383 -3.067 H 1 NIL_1    0.000
94 H_22731 103.008 70.767 -7.584 H 1 NIL_1    0.000
95 H_22732 104.258 70.207 -8.725 H 1 NIL_1    0.000
96 H_22733 104.594 71.604 -7.668 H 1 NIL_1    0.000
97 H_2190 120.109 70.072 -1.537 H 1 NIL_1    0.000
98 H_2194 122.817 71.595 -4.378 H 1 NIL_1    0.000
99 H_2178 103.269 71.750 -5.576 H 1 NIL_1    0.000
100 H_2174 105.822 68.466 -4.930 H 1 NIL_1    0.000
101 H_18751 115.862 74.768 6.352 H 1 NIL_1    0.000
102 H_18752 114.140 75.131 6.051 H 1 NIL_1    0.000
103 H_18753 115.412 76.066 5.212 H 1 NIL_1    0.000
104 H_2188 119.962 72.214 -0.530 H 1 NIL_1    0.000
105 H_2196 122.646 73.760 -3.358 H 1 NIL_1    0.000
106 H_2180 103.248 72.189 -3.239 H 1 NIL_1    0.000
107 H_2172 105.792 68.923 -2.573 H 1 NIL_1    0.000
108 H_18731 114.321 75.420 3.119 H 1 NIL_1    0.000
109 H_18732 113.149 74.359 3.951 H 1 NIL_1    0.000
110 H_18641 121.915 74.511 -0.410 H 1 NIL_1    0.000
111 H_18642 121.536 75.261 -1.953 H 1 NIL_1    0.000
112 H_18661 103.687 71.570 -1.051 H 1 NIL_1    0.000
113 H_18662 104.219 69.921 -0.772 H 1 NIL_1    0.000
114 H_18701 115.304 73.252 2.073 H 1 NIL_1    0.000
115 H_18702 113.863 72.433 2.670 H 1 NIL_1    0.000
116 H_18351 111.622 74.709 1.159 H 1 NIL_1    0.000
117 H_18352 111.798 73.477 2.399 H 1 NIL_1    0.000
118 H_22711 105.964 89.977 -3.912 H 1 NIL_1    0.000
119 H_22712 107.667 89.809 -4.406 H 1 NIL_1    0.000
120 H_22713 107.261 90.313 -2.732 H 1 NIL_1    0.000
121 H_18151 116.788 73.464 0.164 H 1 NIL_1    0.000
122 H_18152 116.146 73.986 -1.415 H 1 NIL_1    0.000
123 H_18811 111.336 77.715 4.270 H 1 NIL_1    0.000
124 H_18812 112.590 78.130 3.064 H 1 NIL_1    0.000
125 H_18813 112.583 76.524 3.837 H 1 NIL_1    0.000
126 H_18251 109.251 70.992 -0.210 H 1 NIL_1    0.000
127 H_18252 109.298 72.153 -1.574 H 1 NIL_1    0.000
128 H_18781 116.404 82.161 -4.930 H 1 NIL_1    0.000
129 H_18782 116.811 80.440 -5.229 H 1 NIL_1    0.000
130 H_18783 118.083 81.689 -5.311 H 1 NIL_1    0.000
131 HP 115.644 75.259 1.308 H 1 NIL_1    0.000
132 H_18131 117.399 77.520 -0.790 H 1 NIL_1    0.000
133 H_18132 116.619 76.578 -2.102 H 1 NIL_1    0.000
134 H_18271 107.212 74.363 0.922 H 1 NIL_1    0.000
135 H_18272 107.500 74.600 -0.805 H 1 NIL_1    0.000
136 H_18791 110.991 78.530 1.250 H 1 NIL_1    0.000
137 H_18792 109.763 78.383 2.522 H 1 NIL_1    0.000
138 HP 109.472 74.628 1.356 H 1 NIL_1    0.000
139 H_2210 106.808 86.390 -1.515 H 1 NIL_1    0.000
140 H_2206 109.487 88.995 -3.447 H 1 NIL_1    0.000
141 H_18761 115.579 81.785 -2.679 H 1 NIL_1    0.000
142 H_18762 116.685 81.055 -1.497 H 1 NIL_1    0.000
143 H_18721 108.672 76.521 1.292 H 1 NIL_1    0.000
144 H_18722 108.661 78.010 0.406 H 1 NIL_1    0.000
145 H_2212 108.649 85.354 -0.379 H 1 NIL_1    0.000
146 H_2204 111.309 87.957 -2.314 H 1 NIL_1    0.000
147 H_18711 115.276 79.551 -3.769 H 1 NIL_1    0.000
148 H_18712 116.437 78.830 -2.655 H 1 NIL_1    0.000
149 H_18291 114.691 79.710 0.304 H 1 NIL_1    0.000
150 H_18292 116.182 79.126 -0.394 H 1 NIL_1    0.000
151 H_18401 110.901 77.019 -2.269 H 1 NIL_1    0.000
152 H_18402 111.725 77.540 -0.811 H 1 NIL_1    0.000
153 H_18681 112.173 86.515 -0.721 H 1 NIL_1    0.000
154 H_18682 111.064 85.930 0.518 H 1 NIL_1    0.000
155 HP 112.509 79.265 -0.106 H 1 NIL_1    0.000
156 H_18181 112.360 81.396 0.699 H 1 NIL_1    0.000
157 H_18182 113.596 81.741 -0.522 H 1 NIL_1    0.000
158 H_18161 109.592 81.403 -0.669 H 1 NIL_1    0.000
159 H_18162 109.964 81.478 -2.415 H 1 NIL_1    0.000
160 HH 117.910 75.904 1.488 H 1 NIL_1    0.000
161 HH 107.572 71.800 1.875 H 1 NIL_1    0.000
162 HH 112.452 82.398 -3.083 H 1 NIL_1    0.000
@<TRIPOS>BOND
1 1 2 1 
2 3 1 1 
3 4 1 1 
4 5 10 1 
5 5 1 1 
6 5 162 1 
7 6 2 1 
8 7 3 1 
9 7 6 1 
10 7 155 1 
11 8 4 1 
12 9 4 2 
13 10 8 1 
14 11 6 1 
15 12 7 1 
16 13 8 1 
17 13 153 1 
18 13 154 1 
19 14 10 2 
20 15 11 2 
21 16 20 1 
22 16 11 1 
23 16 151 1 
24 16 152 1 
25 17 12 2 
26 18 12 1 
27 19 13 1 
28 20 25 1 
29 21 18 1 
30 21 27 1 
31 21 149 1 
32 21 150 1 
33 22 18 1 
34 22 28 1 
35 22 147 1 
36 22 148 1 
37 23 19 2 
38 23 146 1 
39 24 30 2 
40 24 19 1 
41 24 145 1 
42 25 31 1 
43 26 20 1 
44 26 33 1 
45 26 143 1 
46 26 144 1 
47 27 35 1 
48 28 141 1 
49 28 142 1 
50 29 23 1 
51 29 140 1 
52 30 37 1 
53 30 139 1 
54 31 138 1 
55 32 25 2 
56 33 136 1 
57 33 137 1 
58 34 27 2 
59 36 28 1 
60 37 29 2 
61 38 45 1 
62 38 31 1 
63 38 134 1 
64 38 135 1 
65 39 46 1 
66 39 31 1 
67 39 47 1 
68 40 33 1 
69 41 35 1 
70 41 49 1 
71 41 132 1 
72 41 133 1 
73 42 51 1 
74 42 35 1 
75 42 131 1 
76 43 36 1 
77 43 128 1 
78 43 129 1 
79 43 130 1 
80 44 37 1 
81 45 46 1 
82 46 126 1 
83 46 127 1 
84 48 40 1 
85 48 123 1 
86 48 124 1 
87 48 125 1 
88 50 42 1 
89 50 59 2 
90 51 49 1 
91 52 44 1 
92 52 118 1 
93 52 119 1 
94 52 120 1 
95 53 45 1 
96 54 63 1 
97 54 45 1 
98 54 161 1 
99 55 47 2 
100 56 60 1 
101 56 47 1 
102 56 116 1 
103 56 117 1 
104 57 49 1 
105 58 66 1 
106 58 49 1 
107 58 160 1 
108 60 50 1 
109 61 53 1 
110 62 53 2 
111 63 61 1 
112 64 57 1 
113 65 57 2 
114 66 64 1 
115 67 60 1 
116 67 72 1 
117 67 114 1 
118 67 115 1 
119 68 61 1 
120 68 112 1 
121 68 113 1 
122 69 63 2 
123 70 64 1 
124 70 74 1 
125 71 66 2 
126 73 68 1 
127 73 76 2 
128 73 77 1 
129 74 78 1 
130 75 72 1 
131 77 82 2 
132 79 84 1 
133 79 74 2 
134 79 104 1 
135 80 75 1 
136 81 76 1 
137 82 85 1 
138 83 78 2 
139 84 86 2 
140 84 97 1 
141 85 81 2 
142 86 88 1 
143 86 83 1 
144 87 85 1 
145 89 87 1 
146 89 96 1 
147 90 88 1 
148 91 90 1 
149 92 90 1 
150 93 90 1 
151 94 89 1 
152 95 89 1 
153 98 83 1 
154 99 82 1 
155 100 81 1 
156 101 80 1 
157 102 80 1 
158 103 80 1 
159 105 78 1 
160 106 77 1 
161 107 76 1 
162 108 72 1 
163 109 72 1 
164 110 70 1 
165 111 70 1 
166 121 51 1 
167 122 51 1 
168 156 3 1 
169 157 3 1 
170 158 2 1 
171 159 2 1 
@<TRIPOS>SUBSTRUCTURE
1 NIL_1 1 RESIDUE 1 A NIL 1
