@<TRIPOS>MOLECULE
NIL
162 171 1 0 0
POLYMER
CHARGES


@<TRIPOS>ATOM
1 CQ 88.4067 54.4562 -33.4079 C.3 1 NIL_1    0.000
2 C_1816 87.516 53.213 -33.305 C.3 1 NIL_1    0.000
3 C_1818 89.418 54.319 -32.259 C.3 1 NIL_1    0.000
4 C_1854 87.596 55.730 -33.305 C.2 1 NIL_1    0.000
5 NH 89.017 54.673 -34.709 N.am 1 NIL_1    0.000
6 N 87.542 52.809 -31.894 N.am 1 NIL_1    0.000
7 CP 88.742 53.377 -31.243 C.3 1 NIL_1    0.000
8 N 87.829 56.472 -34.415 N.am 1 NIL_1    0.000
9 O 86.859 56.037 -32.387 O.2 1 NIL_1    0.000
10 C_1856 88.697 55.857 -35.257 C.2 1 NIL_1    0.000
11 C_1841 86.665 51.977 -31.273 C.2 1 NIL_1    0.000
12 C_1838 89.709 52.293 -30.770 C.2 1 NIL_1    0.000
13 C_1868 87.273 57.823 -34.631 C.3 1 NIL_1    0.000
14 O 89.129 56.281 -36.310 O.2 1 NIL_1    0.000
15 O 86.845 51.633 -30.118 O.2 1 NIL_1    0.000
16 C_1840 85.451 51.505 -32.067 C.3 1 NIL_1    0.000
17 O 89.724 51.204 -31.315 O.2 1 NIL_1    0.000
18 N 90.551 52.558 -29.730 N.am 1 NIL_1    0.000
19 C_1869 86.630 58.054 -35.988 C.2 1 NIL_1    0.000
20 N 84.443 50.830 -31.216 N.am 1 NIL_1    0.000
21 C_1829 91.306 51.469 -29.078 C.3 1 NIL_1    0.000
22 C_1871 90.721 53.865 -29.065 C.3 1 NIL_1    0.000
23 C_2204 87.265 58.754 -36.932 C.2 1 NIL_1    0.000
24 C_2212 85.415 57.569 -36.259 C.2 1 NIL_1    0.000
25 C_1843 84.295 49.471 -31.214 C.2 1 NIL_1    0.000
26 C_1872 83.791 51.783 -30.283 C.3 1 NIL_1    0.000
27 C_1830 90.377 50.470 -28.397 C.2 1 NIL_1    0.000
28 C_1876 89.933 53.961 -27.744 C.3 1 NIL_1    0.000
29 C_2206 86.704 58.965 -38.123 C.2 1 NIL_1    0.000
30 C_2210 84.850 57.779 -37.449 C.2 1 NIL_1    0.000
31 AP 83.474 48.812 -30.104 C.3 1 NIL_1    0.000
32 O 84.814 48.784 -32.074 O.2 1 NIL_1    0.000
33 C_1879 82.340 52.139 -30.657 C.3 1 NIL_1    0.000
34 O 89.283 50.811 -27.987 O.2 1 NIL_1    0.000
35 N 90.802 49.184 -28.274 N.am 1 NIL_1    0.000
36 O 89.917 55.326 -27.268 O.3 1 NIL_1    0.000
37 C_2208 85.483 58.479 -38.395 C.2 1 NIL_1    0.000
38 C_1827 82.017 48.582 -30.553 C.3 1 NIL_1    0.000
39 N 84.019 47.511 -29.654 N.am 1 NIL_1    0.000
40 O 82.309 52.728 -31.974 O.3 1 NIL_1    0.000
41 C_1813 92.128 48.689 -28.654 C.3 1 NIL_1    0.000
42 BP 89.927 48.046 -27.923 C.3 1 NIL_1    0.000
43 C_1878 88.962 56.205 -27.906 C.3 1 NIL_1    0.000
44 O 84.833 58.652 -39.593 O.3 1 NIL_1    0.000
45 AQ 81.814 47.058 -30.535 C.3 1 NIL_1    0.000
46 C_1825 82.939 46.516 -29.643 C.3 1 NIL_1    0.000
47 C_1844 85.267 47.279 -29.155 C.2 1 NIL_1    0.000
48 C_1881 80.982 52.994 -32.474 C.3 1 NIL_1    0.000
49 BQ 92.212 47.221 -28.218 C.3 1 NIL_1    0.000
50 C_1833 88.659 48.049 -28.789 C.2 1 NIL_1    0.000
51 C_1815 90.750 46.749 -28.119 C.3 1 NIL_1    0.000
52 C_2271 85.433 59.468 -40.629 C.3 1 NIL_1    0.000
53 C_1846 81.859 46.467 -31.927 C.2 1 NIL_1    0.000
54 NH 80.472 46.645 -30.153 N.am 1 NIL_1    0.000
55 O 85.596 46.170 -28.777 O.2 1 NIL_1    0.000
56 C_1835 86.232 48.461 -29.080 C.3 1 NIL_1    0.000
57 C_1850 93.073 46.422 -29.167 C.2 1 NIL_1    0.000
58 NH 92.972 47.027 -26.990 N.am 1 NIL_1    0.000
59 O 88.776 47.907 -29.993 O.2 1 NIL_1    0.000
60 N 87.428 48.256 -28.221 N.am 1 NIL_1    0.000
61 N 80.658 45.895 -32.188 N.am 1 NIL_1    0.000
62 O 82.809 46.500 -32.687 O.2 1 NIL_1    0.000
63 C_1848 79.810 46.009 -31.136 C.2 1 NIL_1    0.000
64 N 94.134 45.945 -28.474 N.am 1 NIL_1    0.000
65 O 92.868 46.253 -30.354 O.2 1 NIL_1    0.000
66 C_1852 94.080 46.286 -27.165 C.2 1 NIL_1    0.000
67 C_1870 87.211 48.421 -26.750 C.3 1 NIL_1    0.000
68 C_1866 80.282 45.342 -33.505 C.3 1 NIL_1    0.000
69 O 78.656 45.633 -31.078 O.2 1 NIL_1    0.000
70 C_1864 95.207 45.141 -29.085 C.3 1 NIL_1    0.000
71 O 94.872 45.979 -26.297 O.2 1 NIL_1    0.000
72 C_1873 85.866 48.988 -26.223 C.3 1 NIL_1    0.000
73 C_1867 79.502 44.040 -33.503 C.2 1 NIL_1    0.000
74 C_1865 94.680 43.790 -29.527 C.2 1 NIL_1    0.000
75 O 84.792 48.040 -26.416 O.3 1 NIL_1    0.000
76 C_2172 80.040 42.914 -33.025 C.2 1 NIL_1    0.000
77 C_2180 78.260 43.996 -33.993 C.2 1 NIL_1    0.000
78 C_2196 94.284 42.896 -28.618 C.2 1 NIL_1    0.000
79 C_2188 94.578 43.478 -30.822 C.2 1 NIL_1    0.000
80 C_1875 83.467 48.553 -26.168 C.3 1 NIL_1    0.000
81 C_2174 79.352 41.771 -33.029 C.2 1 NIL_1    0.000
82 C_2178 77.569 42.855 -34.000 C.2 1 NIL_1    0.000
83 C_2194 93.785 41.716 -28.991 C.2 1 NIL_1    0.000
84 C_2190 94.077 42.299 -31.199 C.2 1 NIL_1    0.000
85 C_2176 78.102 41.731 -33.515 C.2 1 NIL_1    0.000
86 C_2192 93.670 41.408 -30.291 C.2 1 NIL_1    0.000
87 O 77.332 40.595 -33.551 O.3 1 NIL_1    0.000
88 O 93.148 40.224 -30.750 O.3 1 NIL_1    0.000
89 C_2273 77.677 39.479 -32.692 C.3 1 NIL_1    0.000
90 C_2269 92.469 39.343 -29.821 C.3 1 NIL_1    0.000
91 H_22691 91.676 39.892 -29.303 H 1 NIL_1    0.000
92 H_22692 93.190 38.948 -29.100 H 1 NIL_1    0.000
93 H_22693 92.030 38.514 -30.382 H 1 NIL_1    0.000
94 H_22731 76.888 38.725 -32.765 H 1 NIL_1    0.000
95 H_22732 77.754 39.827 -31.659 H 1 NIL_1    0.000
96 H_22733 78.623 39.043 -33.020 H 1 NIL_1    0.000
97 H_2190 93.993 42.070 -32.258 H 1 NIL_1    0.000
98 H_2194 93.473 41.028 -28.211 H 1 NIL_1    0.000
99 H_2178 76.559 42.846 -34.403 H 1 NIL_1    0.000
100 H_2174 79.833 40.882 -32.633 H 1 NIL_1    0.000
101 H_18751 82.733 47.809 -26.489 H 1 NIL_1    0.000
102 H_18752 83.318 49.474 -26.739 H 1 NIL_1    0.000
103 H_18753 83.347 48.753 -25.100 H 1 NIL_1    0.000
104 H_2188 94.891 44.190 -31.582 H 1 NIL_1    0.000
105 H_2196 94.357 43.129 -27.558 H 1 NIL_1    0.000
106 H_2180 77.800 44.897 -34.391 H 1 NIL_1    0.000
107 H_2172 81.053 42.922 -32.625 H 1 NIL_1    0.000
108 H_18731 85.952 49.188 -25.151 H 1 NIL_1    0.000
109 H_18732 85.626 49.925 -26.734 H 1 NIL_1    0.000
110 H_18641 96.020 45.002 -28.366 H 1 NIL_1    0.000
111 H_18642 95.605 45.696 -29.940 H 1 NIL_1    0.000
112 H_18661 81.190 45.193 -34.095 H 1 NIL_1    0.000
113 H_18662 79.696 46.110 -34.017 H 1 NIL_1    0.000
114 H_18701 87.971 49.113 -26.383 H 1 NIL_1    0.000
115 H_18702 87.386 47.453 -26.274 H 1 NIL_1    0.000
116 H_18351 86.545 48.665 -30.106 H 1 NIL_1    0.000
117 H_18352 85.687 49.345 -28.743 H 1 NIL_1    0.000
118 H_22711 84.749 59.502 -41.481 H 1 NIL_1    0.000
119 H_22712 86.382 59.025 -40.942 H 1 NIL_1    0.000
120 H_22713 85.592 60.482 -40.251 H 1 NIL_1    0.000
121 H_18151 90.595 46.051 -27.292 H 1 NIL_1    0.000
122 H_18152 90.460 46.243 -29.042 H 1 NIL_1    0.000
123 H_18811 80.453 53.652 -31.778 H 1 NIL_1    0.000
124 H_18812 80.438 52.050 -32.579 H 1 NIL_1    0.000
125 H_18813 81.063 53.481 -33.450 H 1 NIL_1    0.000
126 H_18251 82.579 46.418 -28.616 H 1 NIL_1    0.000
127 H_18252 83.297 45.548 -30.001 H 1 NIL_1    0.000
128 H_18781 89.172 56.274 -28.976 H 1 NIL_1    0.000
129 H_18782 89.045 57.196 -27.455 H 1 NIL_1    0.000
130 H_18783 87.953 55.814 -27.752 H 1 NIL_1    0.000
131 HP 89.684 48.128 -26.864 H 1 NIL_1    0.000
132 H_18131 92.916 49.285 -28.184 H 1 NIL_1    0.000
133 H_18132 92.216 48.754 -29.742 H 1 NIL_1    0.000
134 H_18271 81.345 49.060 -29.836 H 1 NIL_1    0.000
135 H_18272 81.818 49.006 -31.541 H 1 NIL_1    0.000
136 H_18791 81.714 51.246 -30.650 H 1 NIL_1    0.000
137 H_18792 81.943 52.859 -29.937 H 1 NIL_1    0.000
138 HP 83.463 49.458 -29.228 H 1 NIL_1    0.000
139 H_2210 83.859 57.376 -37.650 H 1 NIL_1    0.000
140 H_2206 87.263 59.539 -38.857 H 1 NIL_1    0.000
141 H_18761 88.904 53.619 -27.882 H 1 NIL_1    0.000
142 H_18762 90.417 53.336 -26.988 H 1 NIL_1    0.000
143 H_18721 84.356 52.720 -30.267 H 1 NIL_1    0.000
144 H_18722 83.821 51.397 -29.263 H 1 NIL_1    0.000
145 H_2212 84.876 56.999 -35.505 H 1 NIL_1    0.000
146 H_2204 88.255 59.160 -36.733 H 1 NIL_1    0.000
147 H_18711 90.410 54.664 -29.736 H 1 NIL_1    0.000
148 H_18712 91.783 54.018 -28.857 H 1 NIL_1    0.000
149 H_18291 91.989 51.858 -28.319 H 1 NIL_1    0.000
150 H_18292 91.891 50.955 -29.844 H 1 NIL_1    0.000
151 H_18401 84.989 52.380 -32.533 H 1 NIL_1    0.000
152 H_18402 85.814 50.843 -32.858 H 1 NIL_1    0.000
153 H_18681 88.083 58.542 -34.481 H 1 NIL_1    0.000
154 H_18682 86.524 58.023 -33.861 H 1 NIL_1    0.000
155 HP 88.407 53.950 -30.375 H 1 NIL_1    0.000
156 H_18181 89.663 55.287 -31.815 H 1 NIL_1    0.000
157 H_18182 90.342 53.870 -32.632 H 1 NIL_1    0.000
158 H_18161 86.503 53.432 -33.653 H 1 NIL_1    0.000
159 H_18162 87.940 52.399 -33.901 H 1 NIL_1    0.000
160 HH 92.677 47.397 -26.099 H 1 NIL_1    0.000
161 HH 80.060 46.890 -29.265 H 1 NIL_1    0.000
162 HH 89.671 54.021 -35.117 H 1 NIL_1    0.000
@<TRIPOS>BOND
1 1 2 1 
2 3 1 1 
3 4 1 1 
4 5 10 1 
5 5 1 1 
6 5 162 1 
7 6 2 1 
8 7 3 1 
9 7 6 1 
10 7 155 1 
11 8 4 1 
12 9 4 2 
13 10 8 1 
14 11 6 1 
15 12 7 1 
16 13 8 1 
17 13 153 1 
18 13 154 1 
19 14 10 2 
20 15 11 2 
21 16 20 1 
22 16 11 1 
23 16 151 1 
24 16 152 1 
25 17 12 2 
26 18 12 1 
27 19 13 1 
28 20 25 1 
29 21 18 1 
30 21 27 1 
31 21 149 1 
32 21 150 1 
33 22 18 1 
34 22 28 1 
35 22 147 1 
36 22 148 1 
37 23 19 2 
38 23 146 1 
39 24 30 2 
40 24 19 1 
41 24 145 1 
42 25 31 1 
43 26 20 1 
44 26 33 1 
45 26 143 1 
46 26 144 1 
47 27 35 1 
48 28 141 1 
49 28 142 1 
50 29 23 1 
51 29 140 1 
52 30 37 1 
53 30 139 1 
54 31 138 1 
55 32 25 2 
56 33 136 1 
57 33 137 1 
58 34 27 2 
59 36 28 1 
60 37 29 2 
61 38 45 1 
62 38 31 1 
63 38 134 1 
64 38 135 1 
65 39 46 1 
66 39 31 1 
67 39 47 1 
68 40 33 1 
69 41 35 1 
70 41 49 1 
71 41 132 1 
72 41 133 1 
73 42 51 1 
74 42 35 1 
75 42 131 1 
76 43 36 1 
77 43 128 1 
78 43 129 1 
79 43 130 1 
80 44 37 1 
81 45 46 1 
82 46 126 1 
83 46 127 1 
84 48 40 1 
85 48 123 1 
86 48 124 1 
87 48 125 1 
88 50 42 1 
89 50 59 2 
90 51 49 1 
91 52 44 1 
92 52 118 1 
93 52 119 1 
94 52 120 1 
95 53 45 1 
96 54 63 1 
97 54 45 1 
98 54 161 1 
99 55 47 2 
100 56 60 1 
101 56 47 1 
102 56 116 1 
103 56 117 1 
104 57 49 1 
105 58 66 1 
106 58 49 1 
107 58 160 1 
108 60 50 1 
109 61 53 1 
110 62 53 2 
111 63 61 1 
112 64 57 1 
113 65 57 2 
114 66 64 1 
115 67 60 1 
116 67 72 1 
117 67 114 1 
118 67 115 1 
119 68 61 1 
120 68 112 1 
121 68 113 1 
122 69 63 2 
123 70 64 1 
124 70 74 1 
125 71 66 2 
126 73 68 1 
127 73 76 2 
128 73 77 1 
129 74 78 1 
130 75 72 1 
131 77 82 2 
132 79 84 1 
133 79 74 2 
134 79 104 1 
135 80 75 1 
136 81 76 1 
137 82 85 1 
138 83 78 2 
139 84 86 2 
140 84 97 1 
141 85 81 2 
142 86 88 1 
143 86 83 1 
144 87 85 1 
145 89 87 1 
146 89 96 1 
147 90 88 1 
148 91 90 1 
149 92 90 1 
150 93 90 1 
151 94 89 1 
152 95 89 1 
153 98 83 1 
154 99 82 1 
155 100 81 1 
156 101 80 1 
157 102 80 1 
158 103 80 1 
159 105 78 1 
160 106 77 1 
161 107 76 1 
162 108 72 1 
163 109 72 1 
164 110 70 1 
165 111 70 1 
166 121 51 1 
167 122 51 1 
168 156 3 1 
169 157 3 1 
170 158 2 1 
171 159 2 1 
@<TRIPOS>SUBSTRUCTURE
1 NIL_1 1 RESIDUE 1 A NIL 1
