@<TRIPOS>MOLECULE
NIL
162 171 1 0 0
POLYMER
CHARGES


@<TRIPOS>ATOM
1 CQ 99.812 68.5685 -15.1934 C.3 1 NIL_1    0.000
2 C_1816 99.531 67.349 -16.075 C.3 1 NIL_1    0.000
3 C_1818 99.094 68.321 -13.856 C.3 1 NIL_1    0.000
4 C_1854 99.346 69.821 -15.891 C.2 1 NIL_1    0.000
5 NH 101.224 68.884 -15.049 N.am 1 NIL_1    0.000
6 N 98.527 66.536 -15.388 N.am 1 NIL_1    0.000
7 CP 98.506 66.894 -13.950 C.3 1 NIL_1    0.000
8 N 100.420 70.620 -16.077 N.am 1 NIL_1    0.000
9 O 98.209 70.064 -16.249 O.2 1 NIL_1    0.000
10 C_1856 101.552 70.081 -15.565 C.2 1 NIL_1    0.000
11 C_1841 97.797 65.588 -16.031 C.2 1 NIL_1    0.000
12 C_1838 99.294 65.921 -13.073 C.2 1 NIL_1    0.000
13 C_1868 100.344 71.931 -16.736 C.3 1 NIL_1    0.000
14 O 102.662 70.576 -15.553 O.2 1 NIL_1    0.000
15 O 97.789 65.513 -17.245 O.2 1 NIL_1    0.000
16 C_1840 97.020 64.584 -15.202 C.3 1 NIL_1    0.000
17 O 99.954 65.035 -13.583 O.2 1 NIL_1    0.000
18 N 99.264 66.088 -11.714 N.am 1 NIL_1    0.000
19 C_1869 99.668 72.924 -15.815 C.2 1 NIL_1    0.000
20 N 97.738 63.338 -14.810 N.am 1 NIL_1    0.000
21 C_1829 100.089 65.290 -10.777 C.3 1 NIL_1    0.000
22 C_1871 98.293 66.920 -10.973 C.3 1 NIL_1    0.000
23 C_2204 100.317 73.404 -14.752 C.2 1 NIL_1    0.000
24 C_2212 98.409 73.319 -16.033 C.2 1 NIL_1    0.000
25 C_1843 97.285 62.646 -13.719 C.2 1 NIL_1    0.000
26 C_1872 98.768 62.884 -15.788 C.3 1 NIL_1    0.000
27 C_1830 101.549 65.098 -11.167 C.2 1 NIL_1    0.000
28 C_1876 97.151 66.058 -10.394 C.3 1 NIL_1    0.000
29 C_2206 99.722 74.259 -13.923 C.2 1 NIL_1    0.000
30 C_2210 97.809 74.175 -15.204 C.2 1 NIL_1    0.000
31 AP 97.597 61.169 -13.491 C.3 1 NIL_1    0.000
32 O 96.559 63.191 -12.908 O.2 1 NIL_1    0.000
33 C_1879 98.202 62.127 -17.012 C.3 1 NIL_1    0.000
34 O 102.118 65.860 -11.928 O.2 1 NIL_1    0.000
35 N 102.207 64.047 -10.615 N.am 1 NIL_1    0.000
36 O 96.222 66.864 -9.630 O.3 1 NIL_1    0.000
37 C_2208 98.463 74.656 -14.134 C.2 1 NIL_1    0.000
38 C_1827 96.645 60.323 -14.362 C.3 1 NIL_1    0.000
39 N 98.969 60.632 -13.662 N.am 1 NIL_1    0.000
40 O 99.091 62.282 -18.142 O.3 1 NIL_1    0.000
41 C_1813 103.609 63.729 -10.931 C.3 1 NIL_1    0.000
42 BP 101.786 63.296 -9.415 C.3 1 NIL_1    0.000
43 C_1878 96.725 67.455 -8.410 C.3 1 NIL_1    0.000
44 O 97.924 75.540 -13.232 O.3 1 NIL_1    0.000
45 AQ 97.399 59.004 -14.510 C.3 1 NIL_1    0.000
46 C_1825 98.879 59.418 -14.495 C.3 1 NIL_1    0.000
47 C_1844 100.129 61.020 -13.050 C.2 1 NIL_1    0.000
48 C_1881 100.295 61.483 -18.121 C.3 1 NIL_1    0.000
49 BQ 104.045 62.601 -9.989 C.3 1 NIL_1    0.000
50 C_1833 100.683 62.220 -9.441 C.2 1 NIL_1    0.000
51 C_1815 103.068 62.675 -8.815 C.3 1 NIL_1    0.000
52 C_2271 96.523 75.901 -13.314 C.3 1 NIL_1    0.000
53 C_1846 97.008 58.158 -15.700 C.2 1 NIL_1    0.000
54 NH 97.061 58.082 -13.440 N.am 1 NIL_1    0.000
55 O 101.177 60.480 -13.346 O.2 1 NIL_1    0.000
56 C_1835 100.127 62.115 -11.980 C.3 1 NIL_1    0.000
57 C_1850 104.010 61.257 -10.673 C.2 1 NIL_1    0.000
58 NH 105.446 62.639 -9.604 N.am 1 NIL_1    0.000
59 O 100.342 61.832 -8.339 O.2 1 NIL_1    0.000
60 N 100.070 61.673 -10.552 N.am 1 NIL_1    0.000
61 N 96.564 56.965 -15.237 N.am 1 NIL_1    0.000
62 O 97.089 58.480 -16.871 O.2 1 NIL_1    0.000
63 C_1848 96.570 56.913 -13.883 C.2 1 NIL_1    0.000
64 N 105.259 60.740 -10.641 N.am 1 NIL_1    0.000
65 O 103.038 60.721 -11.165 O.2 1 NIL_1    0.000
66 C_1852 106.129 61.549 -9.992 C.2 1 NIL_1    0.000
67 C_1870 99.049 60.622 -10.317 C.3 1 NIL_1    0.000
68 C_1866 96.186 55.826 -16.092 C.3 1 NIL_1    0.000
69 O 96.204 55.991 -13.182 O.2 1 NIL_1    0.000
70 C_1864 105.615 59.445 -11.239 C.3 1 NIL_1    0.000
71 O 107.308 61.342 -9.785 O.2 1 NIL_1    0.000
72 C_1873 97.708 61.222 -9.855 C.3 1 NIL_1    0.000
73 C_1867 94.893 55.999 -16.862 C.2 1 NIL_1    0.000
74 C_1865 105.512 58.325 -10.225 C.2 1 NIL_1    0.000
75 O 96.728 60.165 -9.805 O.3 1 NIL_1    0.000
76 C_2172 94.910 56.369 -18.146 C.2 1 NIL_1    0.000
77 C_2180 93.717 55.746 -16.280 C.2 1 NIL_1    0.000
78 C_2196 106.541 58.041 -9.422 C.2 1 NIL_1    0.000
79 C_2188 104.392 57.604 -10.113 C.2 1 NIL_1    0.000
80 C_1875 95.371 60.619 -9.631 C.3 1 NIL_1    0.000
81 C_2174 93.774 56.476 -18.838 C.2 1 NIL_1    0.000
82 C_2178 92.579 55.853 -16.969 C.2 1 NIL_1    0.000
83 C_2194 106.456 57.058 -8.525 C.2 1 NIL_1    0.000
84 C_2190 104.305 56.620 -9.218 C.2 1 NIL_1    0.000
85 C_2176 92.601 56.219 -18.256 C.2 1 NIL_1    0.000
86 C_2192 105.335 56.332 -8.417 C.2 1 NIL_1    0.000
87 O 91.458 56.297 -19.000 O.3 1 NIL_1    0.000
88 O 105.177 55.314 -7.513 O.3 1 NIL_1    0.000
89 C_2273 90.471 57.254 -18.550 C.3 1 NIL_1    0.000
90 C_2269 106.349 54.582 -7.078 C.3 1 NIL_1    0.000
91 H_22691 106.997 55.229 -6.481 H 1 NIL_1    0.000
92 H_22692 106.890 54.207 -7.951 H 1 NIL_1    0.000
93 H_22693 106.026 53.739 -6.462 H 1 NIL_1    0.000
94 H_22731 89.611 57.207 -19.224 H 1 NIL_1    0.000
95 H_22732 90.901 58.260 -18.578 H 1 NIL_1    0.000
96 H_22733 90.146 57.012 -17.535 H 1 NIL_1    0.000
97 H_2190 103.385 56.046 -9.144 H 1 NIL_1    0.000
98 H_2194 107.315 56.869 -7.887 H 1 NIL_1    0.000
99 H_2178 91.635 55.623 -16.479 H 1 NIL_1    0.000
100 H_2174 93.809 56.766 -19.886 H 1 NIL_1    0.000
101 H_18751 95.043 61.121 -10.547 H 1 NIL_1    0.000
102 H_18752 95.325 61.316 -8.789 H 1 NIL_1    0.000
103 H_18753 94.730 59.757 -9.433 H 1 NIL_1    0.000
104 H_2188 103.541 57.819 -10.756 H 1 NIL_1    0.000
105 H_2196 107.461 58.616 -9.492 H 1 NIL_1    0.000
106 H_2180 93.684 55.435 -15.238 H 1 NIL_1    0.000
107 H_2172 95.856 56.574 -18.642 H 1 NIL_1    0.000
108 H_18731 97.805 61.658 -8.856 H 1 NIL_1    0.000
109 H_18732 97.378 61.994 -10.553 H 1 NIL_1    0.000
110 H_18641 106.633 59.502 -11.635 H 1 NIL_1    0.000
111 H_18642 104.945 59.251 -12.081 H 1 NIL_1    0.000
112 H_18661 96.104 54.933 -15.468 H 1 NIL_1    0.000
113 H_18662 97.004 55.644 -16.794 H 1 NIL_1    0.000
114 H_18701 99.413 59.927 -9.556 H 1 NIL_1    0.000
115 H_18702 98.875 60.020 -11.206 H 1 NIL_1    0.000
116 H_18351 101.039 62.671 -12.175 H 1 NIL_1    0.000
117 H_18352 99.283 62.776 -12.172 H 1 NIL_1    0.000
118 H_22711 96.298 76.593 -12.499 H 1 NIL_1    0.000
119 H_22712 95.905 75.004 -13.210 H 1 NIL_1    0.000
120 H_22713 96.322 76.392 -14.270 H 1 NIL_1    0.000
121 H_18151 103.468 63.344 -8.049 H 1 NIL_1    0.000
122 H_18152 102.909 61.694 -8.356 H 1 NIL_1    0.000
123 H_18811 100.871 61.702 -17.219 H 1 NIL_1    0.000
124 H_18812 100.890 61.728 -19.006 H 1 NIL_1    0.000
125 H_18813 100.026 60.423 -18.143 H 1 NIL_1    0.000
126 H_18251 99.497 58.614 -14.085 H 1 NIL_1    0.000
127 H_18252 99.222 59.654 -15.505 H 1 NIL_1    0.000
128 H_18781 97.415 68.266 -8.656 H 1 NIL_1    0.000
129 H_18782 97.239 66.695 -7.814 H 1 NIL_1    0.000
130 H_18783 95.882 67.857 -7.842 H 1 NIL_1    0.000
131 HP 101.425 64.040 -8.696 H 1 NIL_1    0.000
132 H_18131 104.223 64.617 -10.755 H 1 NIL_1    0.000
133 H_18132 103.700 63.427 -11.978 H 1 NIL_1    0.000
134 H_18271 95.666 60.199 -13.890 H 1 NIL_1    0.000
135 H_18272 96.489 60.783 -15.338 H 1 NIL_1    0.000
136 H_18791 98.085 61.062 -16.802 H 1 NIL_1    0.000
137 H_18792 97.233 62.542 -17.294 H 1 NIL_1    0.000
138 HP 97.321 60.964 -12.457 H 1 NIL_1    0.000
139 H_2210 96.784 74.467 -15.419 H 1 NIL_1    0.000
140 H_2206 100.271 74.634 -13.062 H 1 NIL_1    0.000
141 H_18761 96.604 65.586 -11.213 H 1 NIL_1    0.000
142 H_18762 97.553 65.277 -9.742 H 1 NIL_1    0.000
143 H_18721 99.526 62.281 -15.299 H 1 NIL_1    0.000
144 H_18722 99.327 63.746 -16.153 H 1 NIL_1    0.000
145 H_2212 97.860 72.935 -16.891 H 1 NIL_1    0.000
146 H_2204 101.340 73.090 -14.554 H 1 NIL_1    0.000
147 H_18711 97.866 67.698 -11.607 H 1 NIL_1    0.000
148 H_18712 98.822 67.425 -10.159 H 1 NIL_1    0.000
149 H_18291 99.621 64.313 -10.687 H 1 NIL_1    0.000
150 H_18292 100.092 65.748 -9.783 H 1 NIL_1    0.000
151 H_18401 96.657 65.102 -14.313 H 1 NIL_1    0.000
152 H_18402 96.144 64.302 -15.793 H 1 NIL_1    0.000
153 H_18681 99.777 71.820 -17.666 H 1 NIL_1    0.000
154 H_18682 101.349 72.275 -16.992 H 1 NIL_1    0.000
155 HP 97.474 66.909 -13.591 H 1 NIL_1    0.000
156 H_18181 98.282 69.041 -13.719 H 1 NIL_1    0.000
157 H_18182 99.779 68.437 -13.011 H 1 NIL_1    0.000
158 H_18161 99.164 67.651 -17.061 H 1 NIL_1    0.000
159 H_18162 100.438 66.752 -16.196 H 1 NIL_1    0.000
160 HH 105.843 63.397 -9.069 H 1 NIL_1    0.000
161 HH 97.115 58.341 -12.467 H 1 NIL_1    0.000
162 HH 101.867 68.288 -14.548 H 1 NIL_1    0.000
@<TRIPOS>BOND
1 1 2 1 
2 3 1 1 
3 4 1 1 
4 5 10 1 
5 5 1 1 
6 5 162 1 
7 6 2 1 
8 7 3 1 
9 7 6 1 
10 7 155 1 
11 8 4 1 
12 9 4 2 
13 10 8 1 
14 11 6 1 
15 12 7 1 
16 13 8 1 
17 13 153 1 
18 13 154 1 
19 14 10 2 
20 15 11 2 
21 16 20 1 
22 16 11 1 
23 16 151 1 
24 16 152 1 
25 17 12 2 
26 18 12 1 
27 19 13 1 
28 20 25 1 
29 21 18 1 
30 21 27 1 
31 21 149 1 
32 21 150 1 
33 22 18 1 
34 22 28 1 
35 22 147 1 
36 22 148 1 
37 23 19 2 
38 23 146 1 
39 24 30 2 
40 24 19 1 
41 24 145 1 
42 25 31 1 
43 26 20 1 
44 26 33 1 
45 26 143 1 
46 26 144 1 
47 27 35 1 
48 28 141 1 
49 28 142 1 
50 29 23 1 
51 29 140 1 
52 30 37 1 
53 30 139 1 
54 31 138 1 
55 32 25 2 
56 33 136 1 
57 33 137 1 
58 34 27 2 
59 36 28 1 
60 37 29 2 
61 38 45 1 
62 38 31 1 
63 38 134 1 
64 38 135 1 
65 39 46 1 
66 39 31 1 
67 39 47 1 
68 40 33 1 
69 41 35 1 
70 41 49 1 
71 41 132 1 
72 41 133 1 
73 42 51 1 
74 42 35 1 
75 42 131 1 
76 43 36 1 
77 43 128 1 
78 43 129 1 
79 43 130 1 
80 44 37 1 
81 45 46 1 
82 46 126 1 
83 46 127 1 
84 48 40 1 
85 48 123 1 
86 48 124 1 
87 48 125 1 
88 50 42 1 
89 50 59 2 
90 51 49 1 
91 52 44 1 
92 52 118 1 
93 52 119 1 
94 52 120 1 
95 53 45 1 
96 54 63 1 
97 54 45 1 
98 54 161 1 
99 55 47 2 
100 56 60 1 
101 56 47 1 
102 56 116 1 
103 56 117 1 
104 57 49 1 
105 58 66 1 
106 58 49 1 
107 58 160 1 
108 60 50 1 
109 61 53 1 
110 62 53 2 
111 63 61 1 
112 64 57 1 
113 65 57 2 
114 66 64 1 
115 67 60 1 
116 67 72 1 
117 67 114 1 
118 67 115 1 
119 68 61 1 
120 68 112 1 
121 68 113 1 
122 69 63 2 
123 70 64 1 
124 70 74 1 
125 71 66 2 
126 73 68 1 
127 73 76 2 
128 73 77 1 
129 74 78 1 
130 75 72 1 
131 77 82 2 
132 79 84 1 
133 79 74 2 
134 79 104 1 
135 80 75 1 
136 81 76 1 
137 82 85 1 
138 83 78 2 
139 84 86 2 
140 84 97 1 
141 85 81 2 
142 86 88 1 
143 86 83 1 
144 87 85 1 
145 89 87 1 
146 89 96 1 
147 90 88 1 
148 91 90 1 
149 92 90 1 
150 93 90 1 
151 94 89 1 
152 95 89 1 
153 98 83 1 
154 99 82 1 
155 100 81 1 
156 101 80 1 
157 102 80 1 
158 103 80 1 
159 105 78 1 
160 106 77 1 
161 107 76 1 
162 108 72 1 
163 109 72 1 
164 110 70 1 
165 111 70 1 
166 121 51 1 
167 122 51 1 
168 156 3 1 
169 157 3 1 
170 158 2 1 
171 159 2 1 
@<TRIPOS>SUBSTRUCTURE
1 NIL_1 1 RESIDUE 1 A NIL 1
