@<TRIPOS>MOLECULE
NIL
162 171 1 0 0
POLYMER
CHARGES


@<TRIPOS>ATOM
1 CQ 92.6756 57.4172 -26.6965 C.3 1 NIL_1    0.000
2 C_1816 92.142 55.995 -26.953 C.3 1 NIL_1    0.000
3 C_1818 91.434 58.235 -26.323 C.3 1 NIL_1    0.000
4 C_1854 93.432 58.010 -27.864 C.2 1 NIL_1    0.000
5 NH 93.726 57.472 -25.690 N.am 1 NIL_1    0.000
6 N 90.828 55.881 -26.295 N.am 1 NIL_1    0.000
7 CP 90.442 57.204 -25.759 C.3 1 NIL_1    0.000
8 N 94.681 58.318 -27.445 N.am 1 NIL_1    0.000
9 O 92.995 58.205 -28.981 O.2 1 NIL_1    0.000
10 C_1856 94.874 58.001 -26.143 C.2 1 NIL_1    0.000
11 C_1841 90.077 54.740 -26.299 C.2 1 NIL_1    0.000
12 C_1838 90.277 57.414 -24.246 C.2 1 NIL_1    0.000
13 C_1868 95.672 59.028 -28.272 C.3 1 NIL_1    0.000
14 O 95.881 58.174 -25.486 O.2 1 NIL_1    0.000
15 O 90.542 53.705 -26.734 O.2 1 NIL_1    0.000
16 C_1840 88.625 54.817 -25.816 C.3 1 NIL_1    0.000
17 O 89.569 58.354 -23.928 O.2 1 NIL_1    0.000
18 N 90.864 56.636 -23.273 N.am 1 NIL_1    0.000
19 C_1869 95.285 60.479 -28.494 C.2 1 NIL_1    0.000
20 N 88.249 54.017 -24.614 N.am 1 NIL_1    0.000
21 C_1829 91.769 55.474 -23.541 C.3 1 NIL_1    0.000
22 C_1871 90.684 57.021 -21.851 C.3 1 NIL_1    0.000
23 C_2204 94.898 61.253 -27.474 C.2 1 NIL_1    0.000
24 C_2212 95.316 61.008 -29.721 C.2 1 NIL_1    0.000
25 C_1843 87.568 54.611 -23.575 C.2 1 NIL_1    0.000
26 C_1872 88.415 52.555 -24.831 C.3 1 NIL_1    0.000
27 C_1830 92.400 54.579 -22.469 C.2 1 NIL_1    0.000
28 C_1876 91.876 57.841 -21.320 C.3 1 NIL_1    0.000
29 C_2206 94.536 62.521 -27.676 C.2 1 NIL_1    0.000
30 C_2210 94.959 62.278 -29.925 C.2 1 NIL_1    0.000
31 AP 86.912 53.821 -22.433 C.3 1 NIL_1    0.000
32 O 87.466 55.822 -23.523 O.2 1 NIL_1    0.000
33 C_1879 87.547 51.966 -25.967 C.3 1 NIL_1    0.000
34 O 92.349 54.766 -21.269 O.2 1 NIL_1    0.000
35 N 93.025 53.466 -22.940 N.am 1 NIL_1    0.000
36 O 91.630 58.170 -19.937 O.3 1 NIL_1    0.000
37 C_2208 94.555 63.047 -28.909 C.2 1 NIL_1    0.000
38 C_1827 85.565 53.228 -22.873 C.3 1 NIL_1    0.000
39 N 87.658 52.732 -21.758 N.am 1 NIL_1    0.000
40 O 87.570 50.524 -25.869 O.3 1 NIL_1    0.000
41 C_1813 93.364 53.170 -24.339 C.3 1 NIL_1    0.000
42 BP 93.099 52.213 -22.173 C.3 1 NIL_1    0.000
43 C_1878 92.673 58.951 -19.318 C.3 1 NIL_1    0.000
44 O 94.190 64.340 -29.190 O.3 1 NIL_1    0.000
45 AQ 85.344 52.096 -21.865 C.3 1 NIL_1    0.000
46 C_1825 86.752 51.602 -21.520 C.3 1 NIL_1    0.000
47 C_1844 88.957 52.779 -21.381 C.2 1 NIL_1    0.000
48 C_1881 88.663 49.866 -26.548 C.3 1 NIL_1    0.000
49 BQ 94.235 51.899 -24.322 C.3 1 NIL_1    0.000
50 C_1833 91.688 51.627 -22.110 C.2 1 NIL_1    0.000
51 C_1815 94.078 51.287 -22.914 C.3 1 NIL_1    0.000
52 C_2271 93.365 65.061 -28.239 C.3 1 NIL_1    0.000
53 C_1846 84.435 50.997 -22.348 C.2 1 NIL_1    0.000
54 NH 84.611 52.523 -20.684 N.am 1 NIL_1    0.000
55 O 89.585 53.814 -21.471 O.2 1 NIL_1    0.000
56 C_1835 89.579 51.492 -20.842 C.3 1 NIL_1    0.000
57 C_1850 93.904 50.902 -25.410 C.2 1 NIL_1    0.000
58 NH 95.624 52.166 -24.665 N.am 1 NIL_1    0.000
59 O 91.098 51.345 -23.138 O.2 1 NIL_1    0.000
60 N 91.057 51.502 -20.907 N.am 1 NIL_1    0.000
61 N 83.400 50.904 -21.478 N.am 1 NIL_1    0.000
62 O 84.604 50.312 -23.339 O.2 1 NIL_1    0.000
63 C_1848 83.502 51.800 -20.466 C.2 1 NIL_1    0.000
64 N 95.032 50.673 -26.124 N.am 1 NIL_1    0.000
65 O 92.823 50.378 -25.602 O.2 1 NIL_1    0.000
66 C_1852 96.067 51.434 -25.700 C.2 1 NIL_1    0.000
67 C_1870 91.711 51.342 -19.591 C.3 1 NIL_1    0.000
68 C_1866 82.294 49.943 -21.610 C.3 1 NIL_1    0.000
69 O 82.745 51.939 -19.527 O.2 1 NIL_1    0.000
70 C_1864 95.157 49.654 -27.178 C.3 1 NIL_1    0.000
71 O 97.194 51.458 -26.152 O.2 1 NIL_1    0.000
72 C_1873 92.063 49.870 -19.296 C.3 1 NIL_1    0.000
73 C_1867 81.637 49.934 -22.977 C.2 1 NIL_1    0.000
74 C_1865 95.829 48.407 -26.632 C.2 1 NIL_1    0.000
75 O 92.895 49.344 -20.356 O.3 1 NIL_1    0.000
76 C_2172 81.367 51.073 -23.628 C.2 1 NIL_1    0.000
77 C_2180 81.328 48.771 -23.560 C.2 1 NIL_1    0.000
78 C_2196 95.114 47.474 -25.996 C.2 1 NIL_1    0.000
79 C_2188 97.146 48.222 -26.767 C.2 1 NIL_1    0.000
80 C_1875 93.135 47.925 -20.279 C.3 1 NIL_1    0.000
81 C_2174 80.816 51.049 -24.843 C.2 1 NIL_1    0.000
82 C_2178 80.774 48.744 -24.771 C.2 1 NIL_1    0.000
83 C_2194 95.704 46.382 -25.507 C.2 1 NIL_1    0.000
84 C_2190 97.739 47.132 -26.277 C.2 1 NIL_1    0.000
85 C_2176 80.523 49.882 -25.421 C.2 1 NIL_1    0.000
86 C_2192 97.021 46.196 -25.637 C.2 1 NIL_1    0.000
87 O 79.979 49.849 -26.668 O.3 1 NIL_1    0.000
88 O 97.552 45.047 -25.103 O.3 1 NIL_1    0.000
89 C_2273 80.969 49.793 -27.718 C.3 1 NIL_1    0.000
90 C_2269 98.989 44.862 -25.075 C.3 1 NIL_1    0.000
91 H_22691 99.208 43.913 -24.579 H 1 NIL_1    0.000
92 H_22692 99.455 45.678 -24.516 H 1 NIL_1    0.000
93 H_22693 99.378 44.832 -26.096 H 1 NIL_1    0.000
94 H_22731 81.630 48.937 -27.552 H 1 NIL_1    0.000
95 H_22732 81.552 50.718 -27.715 H 1 NIL_1    0.000
96 H_22733 80.461 49.682 -28.679 H 1 NIL_1    0.000
97 H_2190 98.812 47.028 -26.412 H 1 NIL_1    0.000
98 H_2194 95.101 45.636 -24.992 H 1 NIL_1    0.000
99 H_2178 80.535 47.790 -25.233 H 1 NIL_1    0.000
100 H_2174 80.613 51.981 -25.362 H 1 NIL_1    0.000
101 H_18751 93.782 47.628 -21.110 H 1 NIL_1    0.000
102 H_18752 92.182 47.392 -20.350 H 1 NIL_1    0.000
103 H_18753 93.620 47.694 -19.328 H 1 NIL_1    0.000
104 H_2188 97.750 48.967 -27.279 H 1 NIL_1    0.000
105 H_2196 94.041 47.603 -25.870 H 1 NIL_1    0.000
106 H_2180 81.534 47.834 -23.047 H 1 NIL_1    0.000
107 H_2172 81.608 52.033 -23.175 H 1 NIL_1    0.000
108 H_18731 92.608 49.795 -18.350 H 1 NIL_1    0.000
109 H_18732 91.147 49.275 -19.238 H 1 NIL_1    0.000
110 H_18641 95.743 50.070 -28.001 H 1 NIL_1    0.000
111 H_18642 94.165 49.404 -27.564 H 1 NIL_1    0.000
112 H_18661 81.533 50.162 -20.857 H 1 NIL_1    0.000
113 H_18662 82.699 48.951 -21.389 H 1 NIL_1    0.000
114 H_18701 91.032 51.692 -18.809 H 1 NIL_1    0.000
115 H_18702 92.607 51.957 -19.508 H 1 NIL_1    0.000
116 H_18351 89.219 51.357 -19.817 H 1 NIL_1    0.000
117 H_18352 89.217 50.658 -21.448 H 1 NIL_1    0.000
118 H_22711 93.921 65.228 -27.314 H 1 NIL_1    0.000
119 H_22712 92.455 64.489 -28.035 H 1 NIL_1    0.000
120 H_22713 93.095 66.027 -28.672 H 1 NIL_1    0.000
121 H_18151 95.038 51.290 -22.394 H 1 NIL_1    0.000
122 H_18152 93.720 50.254 -22.944 H 1 NIL_1    0.000
123 H_18811 88.695 48.821 -26.230 H 1 NIL_1    0.000
124 H_18812 89.609 50.355 -26.298 H 1 NIL_1    0.000
125 H_18813 88.492 49.916 -27.628 H 1 NIL_1    0.000
126 H_18251 86.805 51.286 -20.473 H 1 NIL_1    0.000
127 H_18252 87.039 50.770 -22.170 H 1 NIL_1    0.000
128 H_18781 92.760 59.912 -19.833 H 1 NIL_1    0.000
129 H_18782 93.619 58.407 -19.384 H 1 NIL_1    0.000
130 H_18783 92.419 59.119 -18.268 H 1 NIL_1    0.000
131 HP 93.487 52.425 -21.179 H 1 NIL_1    0.000
132 H_18131 93.901 54.012 -24.787 H 1 NIL_1    0.000
133 H_18132 92.440 52.985 -24.896 H 1 NIL_1    0.000
134 H_18271 84.760 53.967 -22.859 H 1 NIL_1    0.000
135 H_18272 85.643 52.817 -23.882 H 1 NIL_1    0.000
136 H_18791 86.511 52.293 -25.850 H 1 NIL_1    0.000
137 H_18792 87.913 52.273 -26.951 H 1 NIL_1    0.000
138 HP 86.701 54.559 -21.652 H 1 NIL_1    0.000
139 H_2210 94.990 62.684 -30.933 H 1 NIL_1    0.000
140 H_2206 94.227 63.107 -26.816 H 1 NIL_1    0.000
141 H_18761 92.803 57.268 -21.387 H 1 NIL_1    0.000
142 H_18762 91.983 58.766 -21.893 H 1 NIL_1    0.000
143 H_18721 88.165 51.997 -23.936 H 1 NIL_1    0.000
144 H_18722 89.468 52.347 -25.028 H 1 NIL_1    0.000
145 H_2212 95.632 60.403 -30.568 H 1 NIL_1    0.000
146 H_2204 94.868 60.854 -26.463 H 1 NIL_1    0.000
147 H_18711 90.508 56.142 -21.235 H 1 NIL_1    0.000
148 H_18712 89.783 57.625 -21.735 H 1 NIL_1    0.000
149 H_18291 92.597 55.819 -24.155 H 1 NIL_1    0.000
150 H_18292 91.179 54.757 -24.106 H 1 NIL_1    0.000
151 H_18401 88.351 55.860 -25.670 H 1 NIL_1    0.000
152 H_18402 88.016 54.482 -26.659 H 1 NIL_1    0.000
153 H_18681 95.751 58.508 -29.232 H 1 NIL_1    0.000
154 H_18682 96.651 58.981 -27.789 H 1 NIL_1    0.000
155 HP 89.468 57.456 -26.188 H 1 NIL_1    0.000
156 H_18181 90.997 58.682 -27.220 H 1 NIL_1    0.000
157 H_18182 91.660 59.043 -25.621 H 1 NIL_1    0.000
158 H_18161 92.009 55.833 -28.027 H 1 NIL_1    0.000
159 H_18162 92.833 55.243 -26.560 H 1 NIL_1    0.000
160 HH 96.196 52.818 -24.150 H 1 NIL_1    0.000
161 HH 84.931 53.268 -20.083 H 1 NIL_1    0.000
162 HH 93.585 57.161 -24.740 H 1 NIL_1    0.000
@<TRIPOS>BOND
1 1 2 1 
2 3 1 1 
3 4 1 1 
4 5 10 1 
5 5 1 1 
6 5 162 1 
7 6 2 1 
8 7 3 1 
9 7 6 1 
10 7 155 1 
11 8 4 1 
12 9 4 2 
13 10 8 1 
14 11 6 1 
15 12 7 1 
16 13 8 1 
17 13 153 1 
18 13 154 1 
19 14 10 2 
20 15 11 2 
21 16 20 1 
22 16 11 1 
23 16 151 1 
24 16 152 1 
25 17 12 2 
26 18 12 1 
27 19 13 1 
28 20 25 1 
29 21 18 1 
30 21 27 1 
31 21 149 1 
32 21 150 1 
33 22 18 1 
34 22 28 1 
35 22 147 1 
36 22 148 1 
37 23 19 2 
38 23 146 1 
39 24 30 2 
40 24 19 1 
41 24 145 1 
42 25 31 1 
43 26 20 1 
44 26 33 1 
45 26 143 1 
46 26 144 1 
47 27 35 1 
48 28 141 1 
49 28 142 1 
50 29 23 1 
51 29 140 1 
52 30 37 1 
53 30 139 1 
54 31 138 1 
55 32 25 2 
56 33 136 1 
57 33 137 1 
58 34 27 2 
59 36 28 1 
60 37 29 2 
61 38 45 1 
62 38 31 1 
63 38 134 1 
64 38 135 1 
65 39 46 1 
66 39 31 1 
67 39 47 1 
68 40 33 1 
69 41 35 1 
70 41 49 1 
71 41 132 1 
72 41 133 1 
73 42 51 1 
74 42 35 1 
75 42 131 1 
76 43 36 1 
77 43 128 1 
78 43 129 1 
79 43 130 1 
80 44 37 1 
81 45 46 1 
82 46 126 1 
83 46 127 1 
84 48 40 1 
85 48 123 1 
86 48 124 1 
87 48 125 1 
88 50 42 1 
89 50 59 2 
90 51 49 1 
91 52 44 1 
92 52 118 1 
93 52 119 1 
94 52 120 1 
95 53 45 1 
96 54 63 1 
97 54 45 1 
98 54 161 1 
99 55 47 2 
100 56 60 1 
101 56 47 1 
102 56 116 1 
103 56 117 1 
104 57 49 1 
105 58 66 1 
106 58 49 1 
107 58 160 1 
108 60 50 1 
109 61 53 1 
110 62 53 2 
111 63 61 1 
112 64 57 1 
113 65 57 2 
114 66 64 1 
115 67 60 1 
116 67 72 1 
117 67 114 1 
118 67 115 1 
119 68 61 1 
120 68 112 1 
121 68 113 1 
122 69 63 2 
123 70 64 1 
124 70 74 1 
125 71 66 2 
126 73 68 1 
127 73 76 2 
128 73 77 1 
129 74 78 1 
130 75 72 1 
131 77 82 2 
132 79 84 1 
133 79 74 2 
134 79 104 1 
135 80 75 1 
136 81 76 1 
137 82 85 1 
138 83 78 2 
139 84 86 2 
140 84 97 1 
141 85 81 2 
142 86 88 1 
143 86 83 1 
144 87 85 1 
145 89 87 1 
146 89 96 1 
147 90 88 1 
148 91 90 1 
149 92 90 1 
150 93 90 1 
151 94 89 1 
152 95 89 1 
153 98 83 1 
154 99 82 1 
155 100 81 1 
156 101 80 1 
157 102 80 1 
158 103 80 1 
159 105 78 1 
160 106 77 1 
161 107 76 1 
162 108 72 1 
163 109 72 1 
164 110 70 1 
165 111 70 1 
166 121 51 1 
167 122 51 1 
168 156 3 1 
169 157 3 1 
170 158 2 1 
171 159 2 1 
@<TRIPOS>SUBSTRUCTURE
1 NIL_1 1 RESIDUE 1 A NIL 1
