@<TRIPOS>MOLECULE
NIL
162 171 1 0 0
POLYMER
CHARGES


@<TRIPOS>ATOM
1 CQ 106.397 75.9568 -7.13488 C.3 1 NIL_1    0.000
2 C_1816 105.389 74.803 -7.331 C.3 1 NIL_1    0.000
3 C_1818 107.772 75.295 -6.927 C.3 1 NIL_1    0.000
4 C_1854 106.035 76.864 -5.981 C.2 1 NIL_1    0.000
5 NH 106.377 76.939 -8.210 N.am 1 NIL_1    0.000
6 N 106.123 73.540 -7.184 N.am 1 NIL_1    0.000
7 CP 107.571 73.810 -7.270 C.3 1 NIL_1    0.000
8 N 105.904 78.129 -6.451 N.am 1 NIL_1    0.000
9 O 105.881 76.519 -4.825 O.2 1 NIL_1    0.000
10 C_1856 106.085 78.184 -7.793 C.2 1 NIL_1    0.000
11 C_1841 105.534 72.312 -7.101 C.2 1 NIL_1    0.000
12 C_1838 108.112 73.506 -8.671 C.2 1 NIL_1    0.000
13 C_1868 105.521 79.273 -5.595 C.3 1 NIL_1    0.000
14 O 105.997 79.161 -8.509 O.2 1 NIL_1    0.000
15 O 104.327 72.188 -7.160 O.2 1 NIL_1    0.000
16 C_1840 106.483 71.122 -6.992 C.3 1 NIL_1    0.000
17 O 107.664 74.132 -9.615 O.2 1 NIL_1    0.000
18 N 109.073 72.549 -8.874 N.am 1 NIL_1    0.000
19 C_1869 106.080 80.661 -5.873 C.2 1 NIL_1    0.000
20 N 106.018 69.828 -6.440 N.am 1 NIL_1    0.000
21 C_1829 109.721 71.685 -7.854 C.3 1 NIL_1    0.000
22 C_1871 109.443 72.136 -10.247 C.3 1 NIL_1    0.000
23 C_2204 105.287 81.735 -5.783 C.2 1 NIL_1    0.000
24 C_2212 107.369 80.848 -6.180 C.2 1 NIL_1    0.000
25 C_1843 106.612 68.671 -6.870 C.2 1 NIL_1    0.000
26 C_1872 105.264 69.965 -5.167 C.3 1 NIL_1    0.000
27 C_1830 110.294 72.373 -6.625 C.2 1 NIL_1    0.000
28 C_1876 110.644 72.919 -10.801 C.3 1 NIL_1    0.000
29 C_2206 105.763 82.964 -6.000 C.2 1 NIL_1    0.000
30 C_2210 107.847 82.074 -6.403 C.2 1 NIL_1    0.000
31 AP 106.342 67.373 -6.109 C.3 1 NIL_1    0.000
32 O 107.358 68.667 -7.832 O.2 1 NIL_1    0.000
33 C_1879 106.151 70.433 -3.994 C.3 1 NIL_1    0.000
34 O 110.686 73.524 -6.670 O.2 1 NIL_1    0.000
35 N 110.337 71.664 -5.461 N.am 1 NIL_1    0.000
36 O 111.855 72.334 -10.278 O.3 1 NIL_1    0.000
37 C_2208 107.054 83.146 -6.309 C.2 1 NIL_1    0.000
38 C_1827 104.916 66.846 -6.392 C.3 1 NIL_1    0.000
39 N 107.274 66.276 -6.462 N.am 1 NIL_1    0.000
40 O 105.336 70.720 -2.835 O.3 1 NIL_1    0.000
41 C_1813 110.695 72.274 -4.176 C.3 1 NIL_1    0.000
42 BP 109.980 70.237 -5.256 C.3 1 NIL_1    0.000
43 C_1878 112.759 73.247 -9.628 C.3 1 NIL_1    0.000
44 O 107.599 84.381 -6.548 O.3 1 NIL_1    0.000
45 AQ 105.107 65.698 -7.391 C.3 1 NIL_1    0.000
46 C_1825 106.531 65.196 -7.130 C.3 1 NIL_1    0.000
47 C_1844 108.602 66.166 -6.170 C.2 1 NIL_1    0.000
48 C_1881 104.597 71.962 -2.875 C.3 1 NIL_1    0.000
49 BQ 110.814 71.150 -3.139 C.3 1 NIL_1    0.000
50 C_1833 110.864 69.285 -6.061 C.2 1 NIL_1    0.000
51 C_1815 110.057 69.957 -3.737 C.3 1 NIL_1    0.000
52 C_2271 107.156 85.499 -5.736 C.3 1 NIL_1    0.000
53 C_1846 104.919 66.130 -8.828 C.2 1 NIL_1    0.000
54 NH 104.093 64.656 -7.326 N.am 1 NIL_1    0.000
55 O 109.173 65.113 -6.388 O.2 1 NIL_1    0.000
56 C_1835 109.334 67.340 -5.510 C.3 1 NIL_1    0.000
57 C_1850 112.265 70.845 -2.848 C.2 1 NIL_1    0.000
58 NH 110.381 71.547 -1.810 N.am 1 NIL_1    0.000
59 O 111.916 69.685 -6.527 O.2 1 NIL_1    0.000
60 N 110.448 67.996 -6.265 N.am 1 NIL_1    0.000
61 N 103.957 65.354 -9.376 N.am 1 NIL_1    0.000
62 O 105.517 67.018 -9.405 O.2 1 NIL_1    0.000
63 C_1848 103.448 64.469 -8.489 C.2 1 NIL_1    0.000
64 N 112.501 71.158 -1.553 N.am 1 NIL_1    0.000
65 O 113.085 70.416 -3.636 O.2 1 NIL_1    0.000
66 C_1852 111.382 71.579 -0.917 C.2 1 NIL_1    0.000
67 C_1870 111.221 67.116 -7.173 C.3 1 NIL_1    0.000
68 C_1866 103.506 65.468 -10.773 C.3 1 NIL_1    0.000
69 O 102.571 63.653 -8.693 O.2 1 NIL_1    0.000
70 C_1864 113.834 71.134 -0.931 C.3 1 NIL_1    0.000
71 O 111.287 71.924 0.243 O.2 1 NIL_1    0.000
72 C_1873 110.667 67.160 -8.614 C.3 1 NIL_1    0.000
73 C_1867 102.322 66.380 -11.058 C.2 1 NIL_1    0.000
74 C_1865 114.306 69.801 -0.378 C.2 1 NIL_1    0.000
75 O 111.388 66.240 -9.466 O.3 1 NIL_1    0.000
76 C_2172 101.717 67.102 -10.107 C.2 1 NIL_1    0.000
77 C_2180 101.863 66.468 -12.310 C.2 1 NIL_1    0.000
78 C_2196 113.462 68.947 0.209 C.2 1 NIL_1    0.000
79 C_2188 115.600 69.474 -0.445 C.2 1 NIL_1    0.000
80 C_1875 112.727 66.631 -9.846 C.3 1 NIL_1    0.000
81 C_2174 100.681 67.888 -10.406 C.2 1 NIL_1    0.000
82 C_2178 100.828 67.254 -12.611 C.2 1 NIL_1    0.000
83 C_2194 113.902 67.794 0.713 C.2 1 NIL_1    0.000
84 C_2190 116.044 68.322 0.061 C.2 1 NIL_1    0.000
85 C_2176 100.223 67.975 -11.657 C.2 1 NIL_1    0.000
86 C_2192 115.196 67.469 0.651 C.2 1 NIL_1    0.000
87 O 99.154 68.808 -11.882 O.3 1 NIL_1    0.000
88 O 115.571 66.268 1.201 O.3 1 NIL_1    0.000
89 C_2273 98.580 68.901 -13.209 C.3 1 NIL_1    0.000
90 C_2269 116.971 66.011 1.472 C.3 1 NIL_1    0.000
91 H_22691 117.527 65.959 0.532 H 1 NIL_1    0.000
92 H_22692 117.053 65.053 1.991 H 1 NIL_1    0.000
93 H_22693 117.374 66.804 2.107 H 1 NIL_1    0.000
94 H_22731 98.226 67.916 -13.525 H 1 NIL_1    0.000
95 H_22732 99.333 69.275 -13.910 H 1 NIL_1    0.000
96 H_22733 97.738 69.597 -13.177 H 1 NIL_1    0.000
97 H_2190 117.105 68.101 -0.017 H 1 NIL_1    0.000
98 H_2194 113.196 67.118 1.188 H 1 NIL_1    0.000
99 H_2178 100.497 67.290 -13.645 H 1 NIL_1    0.000
100 H_2174 100.206 68.464 -9.615 H 1 NIL_1    0.000
101 H_18751 113.139 65.877 -10.522 H 1 NIL_1    0.000
102 H_18752 113.358 66.701 -8.957 H 1 NIL_1    0.000
103 H_18753 112.690 67.597 -10.357 H 1 NIL_1    0.000
104 H_2188 116.307 70.156 -0.912 H 1 NIL_1    0.000
105 H_2196 112.404 69.184 0.289 H 1 NIL_1    0.000
106 H_2180 102.340 65.892 -13.101 H 1 NIL_1    0.000
107 H_2172 102.056 67.063 -9.075 H 1 NIL_1    0.000
108 H_18731 109.616 66.862 -8.615 H 1 NIL_1    0.000
109 H_18732 110.742 68.173 -9.024 H 1 NIL_1    0.000
110 H_18641 113.844 71.864 -0.118 H 1 NIL_1    0.000
111 H_18642 114.550 71.485 -1.679 H 1 NIL_1    0.000
112 H_18661 103.261 64.462 -11.123 H 1 NIL_1    0.000
113 H_18662 104.356 65.808 -11.372 H 1 NIL_1    0.000
114 H_18701 111.243 66.094 -6.795 H 1 NIL_1    0.000
115 H_18702 112.264 67.439 -7.191 H 1 NIL_1    0.000
116 H_18351 108.594 68.083 -5.222 H 1 NIL_1    0.000
117 H_18352 109.756 66.936 -4.586 H 1 NIL_1    0.000
118 H_22711 107.755 86.376 -5.994 H 1 NIL_1    0.000
119 H_22712 107.303 85.262 -4.680 H 1 NIL_1    0.000
120 H_22713 106.103 85.718 -5.932 H 1 NIL_1    0.000
121 H_18151 109.043 69.927 -3.333 H 1 NIL_1    0.000
122 H_18152 110.541 69.007 -3.499 H 1 NIL_1    0.000
123 H_18811 105.296 72.792 -2.999 H 1 NIL_1    0.000
124 H_18812 104.053 72.083 -1.936 H 1 NIL_1    0.000
125 H_18813 103.884 71.948 -3.703 H 1 NIL_1    0.000
126 H_18251 106.507 64.333 -6.461 H 1 NIL_1    0.000
127 H_18252 107.027 64.913 -8.064 H 1 NIL_1    0.000
128 H_18781 113.047 74.039 -10.324 H 1 NIL_1    0.000
129 H_18782 113.644 72.694 -9.308 H 1 NIL_1    0.000
130 H_18783 112.261 73.681 -8.759 H 1 NIL_1    0.000
131 HP 108.951 70.088 -5.587 H 1 NIL_1    0.000
132 H_18131 109.895 72.965 -3.894 H 1 NIL_1    0.000
133 H_18132 111.636 72.824 -4.265 H 1 NIL_1    0.000
134 H_18271 104.498 66.452 -5.461 H 1 NIL_1    0.000
135 H_18272 104.235 67.612 -6.769 H 1 NIL_1    0.000
136 H_18791 106.850 69.635 -3.735 H 1 NIL_1    0.000
137 H_18792 106.716 71.333 -4.253 H 1 NIL_1    0.000
138 HP 106.446 67.584 -5.041 H 1 NIL_1    0.000
139 H_2210 108.896 82.201 -6.653 H 1 NIL_1    0.000
140 H_2206 105.084 83.809 -5.914 H 1 NIL_1    0.000
141 H_18761 110.668 72.837 -11.890 H 1 NIL_1    0.000
142 H_18762 110.568 73.975 -10.524 H 1 NIL_1    0.000
143 H_18721 104.801 69.018 -4.887 H 1 NIL_1    0.000
144 H_18722 104.444 70.666 -5.307 H 1 NIL_1    0.000
145 H_2212 108.040 79.998 -6.253 H 1 NIL_1    0.000
146 H_2204 104.236 81.613 -5.526 H 1 NIL_1    0.000
147 H_18711 108.585 72.290 -10.907 H 1 NIL_1    0.000
148 H_18712 109.666 71.065 -10.269 H 1 NIL_1    0.000
149 H_18291 110.563 71.152 -8.304 H 1 NIL_1    0.000
150 H_18292 109.001 70.935 -7.542 H 1 NIL_1    0.000
151 H_18401 106.864 70.980 -8.006 H 1 NIL_1    0.000
152 H_18402 107.307 71.418 -6.347 H 1 NIL_1    0.000
153 H_18681 105.805 79.025 -4.570 H 1 NIL_1    0.000
154 H_18682 104.428 79.321 -5.614 H 1 NIL_1    0.000
155 HP 108.081 73.231 -6.508 H 1 NIL_1    0.000
156 H_18181 108.078 75.372 -5.882 H 1 NIL_1    0.000
157 H_18182 108.557 75.758 -7.532 H 1 NIL_1    0.000
158 H_18161 104.578 74.855 -6.600 H 1 NIL_1    0.000
159 H_18162 104.965 74.833 -8.339 H 1 NIL_1    0.000
160 HH 109.431 71.818 -1.603 H 1 NIL_1    0.000
161 HH 103.908 64.130 -6.486 H 1 NIL_1    0.000
162 HH 106.564 76.695 -9.171 H 1 NIL_1    0.000
@<TRIPOS>BOND
1 1 2 1 
2 3 1 1 
3 4 1 1 
4 5 10 1 
5 5 1 1 
6 5 162 1 
7 6 2 1 
8 7 3 1 
9 7 6 1 
10 7 155 1 
11 8 4 1 
12 9 4 2 
13 10 8 1 
14 11 6 1 
15 12 7 1 
16 13 8 1 
17 13 153 1 
18 13 154 1 
19 14 10 2 
20 15 11 2 
21 16 20 1 
22 16 11 1 
23 16 151 1 
24 16 152 1 
25 17 12 2 
26 18 12 1 
27 19 13 1 
28 20 25 1 
29 21 18 1 
30 21 27 1 
31 21 149 1 
32 21 150 1 
33 22 18 1 
34 22 28 1 
35 22 147 1 
36 22 148 1 
37 23 19 2 
38 23 146 1 
39 24 30 2 
40 24 19 1 
41 24 145 1 
42 25 31 1 
43 26 20 1 
44 26 33 1 
45 26 143 1 
46 26 144 1 
47 27 35 1 
48 28 141 1 
49 28 142 1 
50 29 23 1 
51 29 140 1 
52 30 37 1 
53 30 139 1 
54 31 138 1 
55 32 25 2 
56 33 136 1 
57 33 137 1 
58 34 27 2 
59 36 28 1 
60 37 29 2 
61 38 45 1 
62 38 31 1 
63 38 134 1 
64 38 135 1 
65 39 46 1 
66 39 31 1 
67 39 47 1 
68 40 33 1 
69 41 35 1 
70 41 49 1 
71 41 132 1 
72 41 133 1 
73 42 51 1 
74 42 35 1 
75 42 131 1 
76 43 36 1 
77 43 128 1 
78 43 129 1 
79 43 130 1 
80 44 37 1 
81 45 46 1 
82 46 126 1 
83 46 127 1 
84 48 40 1 
85 48 123 1 
86 48 124 1 
87 48 125 1 
88 50 42 1 
89 50 59 2 
90 51 49 1 
91 52 44 1 
92 52 118 1 
93 52 119 1 
94 52 120 1 
95 53 45 1 
96 54 63 1 
97 54 45 1 
98 54 161 1 
99 55 47 2 
100 56 60 1 
101 56 47 1 
102 56 116 1 
103 56 117 1 
104 57 49 1 
105 58 66 1 
106 58 49 1 
107 58 160 1 
108 60 50 1 
109 61 53 1 
110 62 53 2 
111 63 61 1 
112 64 57 1 
113 65 57 2 
114 66 64 1 
115 67 60 1 
116 67 72 1 
117 67 114 1 
118 67 115 1 
119 68 61 1 
120 68 112 1 
121 68 113 1 
122 69 63 2 
123 70 64 1 
124 70 74 1 
125 71 66 2 
126 73 68 1 
127 73 76 2 
128 73 77 1 
129 74 78 1 
130 75 72 1 
131 77 82 2 
132 79 84 1 
133 79 74 2 
134 79 104 1 
135 80 75 1 
136 81 76 1 
137 82 85 1 
138 83 78 2 
139 84 86 2 
140 84 97 1 
141 85 81 2 
142 86 88 1 
143 86 83 1 
144 87 85 1 
145 89 87 1 
146 89 96 1 
147 90 88 1 
148 91 90 1 
149 92 90 1 
150 93 90 1 
151 94 89 1 
152 95 89 1 
153 98 83 1 
154 99 82 1 
155 100 81 1 
156 101 80 1 
157 102 80 1 
158 103 80 1 
159 105 78 1 
160 106 77 1 
161 107 76 1 
162 108 72 1 
163 109 72 1 
164 110 70 1 
165 111 70 1 
166 121 51 1 
167 122 51 1 
168 156 3 1 
169 157 3 1 
170 158 2 1 
171 159 2 1 
@<TRIPOS>SUBSTRUCTURE
1 NIL_1 1 RESIDUE 1 A NIL 1
