@<TRIPOS>MOLECULE
NIL
162 171 1 0 0
POLYMER
CHARGES


@<TRIPOS>ATOM
1 CQ 95.7827 65.6387 -18.8903 C.3 1 NIL_1    0.000
2 C_1816 95.403 64.149 -18.957 C.3 1 NIL_1    0.000
3 C_1818 96.856 65.749 -17.792 C.3 1 NIL_1    0.000
4 C_1854 94.568 66.495 -18.610 C.2 1 NIL_1    0.000
5 NH 96.168 66.193 -20.179 N.am 1 NIL_1    0.000
6 N 95.928 63.492 -17.751 N.am 1 NIL_1    0.000
7 CP 96.641 64.489 -16.926 C.3 1 NIL_1    0.000
8 N 94.385 67.323 -19.667 N.am 1 NIL_1    0.000
9 O 93.873 66.453 -17.612 O.2 1 NIL_1    0.000
10 C_1856 95.330 67.145 -20.620 C.2 1 NIL_1    0.000
11 C_1841 95.552 62.236 -17.392 C.2 1 NIL_1    0.000
12 C_1838 97.889 64.006 -16.172 C.2 1 NIL_1    0.000
13 C_1868 93.330 68.347 -19.738 C.3 1 NIL_1    0.000
14 O 95.425 67.737 -21.677 O.2 1 NIL_1    0.000
15 O 94.991 61.505 -18.188 O.2 1 NIL_1    0.000
16 C_1840 95.813 61.783 -15.964 C.3 1 NIL_1    0.000
17 O 98.012 64.315 -15.002 O.2 1 NIL_1    0.000
18 N 98.762 63.120 -16.742 N.am 1 NIL_1    0.000
19 C_1869 93.730 69.531 -18.882 C.2 1 NIL_1    0.000
20 N 94.822 60.807 -15.474 N.am 1 NIL_1    0.000
21 C_1829 99.539 62.205 -15.852 C.3 1 NIL_1    0.000
22 C_1871 99.424 63.422 -18.031 C.3 1 NIL_1    0.000
23 C_2204 94.694 70.362 -19.287 C.2 1 NIL_1    0.000
24 C_2212 93.150 69.747 -17.697 C.2 1 NIL_1    0.000
25 C_1843 95.100 59.478 -15.525 C.2 1 NIL_1    0.000
26 C_1872 93.695 61.420 -14.729 C.3 1 NIL_1    0.000
27 C_1830 100.223 60.950 -16.416 C.2 1 NIL_1    0.000
28 C_1876 98.774 62.752 -19.254 C.3 1 NIL_1    0.000
29 C_2206 95.084 71.375 -18.515 C.2 1 NIL_1    0.000
30 C_2210 93.539 70.760 -16.921 C.2 1 NIL_1    0.000
31 AP 94.392 58.551 -14.542 C.3 1 NIL_1    0.000
32 O 95.923 59.049 -16.311 O.2 1 NIL_1    0.000
33 C_1879 93.101 62.670 -15.416 C.3 1 NIL_1    0.000
34 O 100.360 60.731 -17.604 O.2 1 NIL_1    0.000
35 N 100.731 60.065 -15.515 N.am 1 NIL_1    0.000
36 O 99.744 62.735 -20.320 O.3 1 NIL_1    0.000
37 C_2208 94.523 71.581 -17.320 C.2 1 NIL_1    0.000
38 C_1827 93.152 57.920 -15.194 C.3 1 NIL_1    0.000
39 N 95.275 57.459 -14.092 N.am 1 NIL_1    0.000
40 O 91.950 63.132 -14.685 O.3 1 NIL_1    0.000
41 C_1813 101.604 58.941 -15.889 C.3 1 NIL_1    0.000
42 BP 100.325 59.909 -14.101 C.3 1 NIL_1    0.000
43 C_1878 99.365 61.967 -21.481 C.3 1 NIL_1    0.000
44 O 94.999 72.629 -16.574 O.3 1 NIL_1    0.000
45 AQ 93.565 56.478 -15.522 C.3 1 NIL_1    0.000
46 C_1825 94.784 56.180 -14.629 C.3 1 NIL_1    0.000
47 C_1844 96.413 57.589 -13.352 C.2 1 NIL_1    0.000
48 C_1881 91.332 64.304 -15.260 C.3 1 NIL_1    0.000
49 BQ 101.924 58.143 -14.614 C.3 1 NIL_1    0.000
50 C_1833 98.924 59.290 -14.014 C.2 1 NIL_1    0.000
51 C_1815 101.398 59.008 -13.461 C.3 1 NIL_1    0.000
52 C_2271 94.645 72.732 -15.173 C.3 1 NIL_1    0.000
53 C_1846 93.863 56.279 -16.994 C.2 1 NIL_1    0.000
54 NH 92.473 55.529 -15.381 N.am 1 NIL_1    0.000
55 O 97.110 56.622 -13.109 O.2 1 NIL_1    0.000
56 C_1835 96.784 58.972 -12.809 C.3 1 NIL_1    0.000
57 C_1850 101.324 56.753 -14.620 C.2 1 NIL_1    0.000
58 NH 103.327 57.789 -14.491 N.am 1 NIL_1    0.000
59 O 98.421 58.808 -15.009 O.2 1 NIL_1    0.000
60 N 98.230 59.302 -12.834 N.am 1 NIL_1    0.000
61 N 92.986 55.373 -17.483 N.am 1 NIL_1    0.000
62 O 94.736 56.824 -17.640 O.2 1 NIL_1    0.000
63 C_1848 92.142 54.919 -16.529 C.2 1 NIL_1    0.000
64 N 102.333 55.858 -14.506 N.am 1 NIL_1    0.000
65 O 100.144 56.473 -14.710 O.2 1 NIL_1    0.000
66 C_1852 103.544 56.467 -14.450 C.2 1 NIL_1    0.000
67 C_1870 98.706 59.873 -11.551 C.3 1 NIL_1    0.000
68 C_1866 92.963 54.922 -18.883 C.3 1 NIL_1    0.000
69 O 91.247 54.110 -16.667 O.2 1 NIL_1    0.000
70 C_1864 102.142 54.397 -14.488 C.3 1 NIL_1    0.000
71 O 104.636 55.940 -14.380 O.2 1 NIL_1    0.000
72 C_1873 99.090 58.826 -10.477 C.3 1 NIL_1    0.000
73 C_1867 92.476 55.992 -19.842 C.2 1 NIL_1    0.000
74 C_1865 102.855 53.724 -13.332 C.2 1 NIL_1    0.000
75 O 97.955 58.013 -10.095 O.3 1 NIL_1    0.000
76 C_2172 93.326 56.589 -20.683 C.2 1 NIL_1    0.000
77 C_2180 91.189 56.350 -19.870 C.2 1 NIL_1    0.000
78 C_2196 102.378 53.818 -12.088 C.2 1 NIL_1    0.000
79 C_2188 103.988 53.045 -13.538 C.2 1 NIL_1    0.000
80 C_1875 96.979 58.627 -9.224 C.3 1 NIL_1    0.000
81 C_2174 92.898 57.525 -21.532 C.2 1 NIL_1    0.000
82 C_2178 90.758 57.287 -20.718 C.2 1 NIL_1    0.000
83 C_2194 103.020 53.246 -11.067 C.2 1 NIL_1    0.000
84 C_2190 104.632 52.478 -12.519 C.2 1 NIL_1    0.000
85 C_2176 91.613 57.887 -21.560 C.2 1 NIL_1    0.000
86 C_2192 104.157 52.566 -11.275 C.2 1 NIL_1    0.000
87 O 91.252 58.854 -22.466 O.3 1 NIL_1    0.000
88 O 104.882 51.978 -10.272 O.3 1 NIL_1    0.000
89 C_2273 89.959 59.496 -22.349 C.3 1 NIL_1    0.000
90 C_2269 104.179 51.397 -9.146 C.3 1 NIL_1    0.000
91 H_22691 103.679 52.178 -8.567 H 1 NIL_1    0.000
92 H_22692 104.911 50.892 -8.510 H 1 NIL_1    0.000
93 H_22693 103.447 50.669 -9.506 H 1 NIL_1    0.000
94 H_22731 89.165 58.764 -22.521 H 1 NIL_1    0.000
95 H_22732 89.891 60.284 -23.104 H 1 NIL_1    0.000
96 H_22733 89.858 59.938 -21.353 H 1 NIL_1    0.000
97 H_2190 105.560 51.943 -12.707 H 1 NIL_1    0.000
98 H_2194 102.610 53.355 -10.067 H 1 NIL_1    0.000
99 H_2178 89.702 57.540 -20.707 H 1 NIL_1    0.000
100 H_2174 93.609 57.994 -22.209 H 1 NIL_1    0.000
101 H_18751 96.143 57.936 -9.099 H 1 NIL_1    0.000
102 H_18752 96.615 59.558 -9.665 H 1 NIL_1    0.000
103 H_18753 97.436 58.832 -8.253 H 1 NIL_1    0.000
104 H_2188 104.401 52.962 -14.541 H 1 NIL_1    0.000
105 H_2196 101.461 54.373 -11.902 H 1 NIL_1    0.000
106 H_2180 90.479 55.872 -19.198 H 1 NIL_1    0.000
107 H_2172 94.378 56.313 -20.681 H 1 NIL_1    0.000
108 H_18731 99.862 58.158 -10.861 H 1 NIL_1    0.000
109 H_18732 99.482 59.331 -9.588 H 1 NIL_1    0.000
110 H_18641 102.505 53.997 -15.439 H 1 NIL_1    0.000
111 H_18642 101.074 54.173 -14.419 H 1 NIL_1    0.000
112 H_18661 92.312 54.048 -18.967 H 1 NIL_1    0.000
113 H_18662 93.973 54.606 -19.156 H 1 NIL_1    0.000
114 H_18701 97.930 60.530 -11.151 H 1 NIL_1    0.000
115 H_18702 99.580 60.502 -11.721 H 1 NIL_1    0.000
116 H_18351 96.282 59.751 -13.373 H 1 NIL_1    0.000
117 H_18352 96.386 59.017 -11.797 H 1 NIL_1    0.000
118 H_22711 94.864 71.788 -14.665 H 1 NIL_1    0.000
119 H_22712 93.584 72.975 -15.080 H 1 NIL_1    0.000
120 H_22713 95.240 73.530 -14.721 H 1 NIL_1    0.000
121 H_18151 102.203 59.643 -13.079 H 1 NIL_1    0.000
122 H_18152 101.024 58.403 -12.637 H 1 NIL_1    0.000
123 H_18811 92.057 65.124 -15.282 H 1 NIL_1    0.000
124 H_18812 90.472 64.588 -14.650 H 1 NIL_1    0.000
125 H_18813 91.002 64.076 -16.279 H 1 NIL_1    0.000
126 H_18251 94.487 55.545 -13.790 H 1 NIL_1    0.000
127 H_18252 95.573 55.680 -15.200 H 1 NIL_1    0.000
128 H_18781 100.150 62.061 -22.237 H 1 NIL_1    0.000
129 H_18782 98.421 62.347 -21.881 H 1 NIL_1    0.000
130 H_18783 99.256 60.918 -21.193 H 1 NIL_1    0.000
131 HP 100.310 60.884 -13.609 H 1 NIL_1    0.000
132 H_18131 102.524 59.346 -16.319 H 1 NIL_1    0.000
133 H_18132 101.106 58.307 -16.628 H 1 NIL_1    0.000
134 H_18271 92.336 57.920 -14.466 H 1 NIL_1    0.000
135 H_18272 92.814 58.468 -16.078 H 1 NIL_1    0.000
136 H_18791 93.833 63.481 -15.443 H 1 NIL_1    0.000
137 H_18792 92.792 62.422 -16.435 H 1 NIL_1    0.000
138 HP 94.092 59.129 -13.663 H 1 NIL_1    0.000
139 H_2210 93.043 70.893 -15.963 H 1 NIL_1    0.000
140 H_2206 95.879 72.032 -18.862 H 1 NIL_1    0.000
141 H_18761 98.482 61.725 -19.023 H 1 NIL_1    0.000
142 H_18762 97.905 63.319 -19.584 H 1 NIL_1    0.000
143 H_18721 94.042 61.683 -13.725 H 1 NIL_1    0.000
144 H_18722 92.888 60.689 -14.629 H 1 NIL_1    0.000
145 H_2212 92.360 69.083 -17.351 H 1 NIL_1    0.000
146 H_2204 95.180 70.209 -20.249 H 1 NIL_1    0.000
147 H_18711 100.473 63.120 -17.976 H 1 NIL_1    0.000
148 H_18712 99.447 64.499 -18.183 H 1 NIL_1    0.000
149 H_18291 98.859 61.858 -15.072 H 1 NIL_1    0.000
150 H_18292 100.327 62.788 -15.367 H 1 NIL_1    0.000
151 H_18401 96.812 61.339 -15.941 H 1 NIL_1    0.000
152 H_18402 95.818 62.646 -15.293 H 1 NIL_1    0.000
153 H_18681 92.389 67.916 -19.384 H 1 NIL_1    0.000
154 H_18682 93.192 68.662 -20.777 H 1 NIL_1    0.000
155 HP 95.932 64.774 -16.142 H 1 NIL_1    0.000
156 H_18181 96.758 66.663 -17.200 H 1 NIL_1    0.000
157 H_18182 97.842 65.755 -18.250 H 1 NIL_1    0.000
158 H_18161 94.315 64.034 -18.992 H 1 NIL_1    0.000
159 H_18162 95.835 63.677 -19.841 H 1 NIL_1    0.000
160 HH 104.061 58.482 -14.478 H 1 NIL_1    0.000
161 HH 91.991 55.381 -14.507 H 1 NIL_1    0.000
162 HH 96.966 65.862 -20.701 H 1 NIL_1    0.000
@<TRIPOS>BOND
1 1 2 1 
2 3 1 1 
3 4 1 1 
4 5 10 1 
5 5 1 1 
6 5 162 1 
7 6 2 1 
8 7 3 1 
9 7 6 1 
10 7 155 1 
11 8 4 1 
12 9 4 2 
13 10 8 1 
14 11 6 1 
15 12 7 1 
16 13 8 1 
17 13 153 1 
18 13 154 1 
19 14 10 2 
20 15 11 2 
21 16 20 1 
22 16 11 1 
23 16 151 1 
24 16 152 1 
25 17 12 2 
26 18 12 1 
27 19 13 1 
28 20 25 1 
29 21 18 1 
30 21 27 1 
31 21 149 1 
32 21 150 1 
33 22 18 1 
34 22 28 1 
35 22 147 1 
36 22 148 1 
37 23 19 2 
38 23 146 1 
39 24 30 2 
40 24 19 1 
41 24 145 1 
42 25 31 1 
43 26 20 1 
44 26 33 1 
45 26 143 1 
46 26 144 1 
47 27 35 1 
48 28 141 1 
49 28 142 1 
50 29 23 1 
51 29 140 1 
52 30 37 1 
53 30 139 1 
54 31 138 1 
55 32 25 2 
56 33 136 1 
57 33 137 1 
58 34 27 2 
59 36 28 1 
60 37 29 2 
61 38 45 1 
62 38 31 1 
63 38 134 1 
64 38 135 1 
65 39 46 1 
66 39 31 1 
67 39 47 1 
68 40 33 1 
69 41 35 1 
70 41 49 1 
71 41 132 1 
72 41 133 1 
73 42 51 1 
74 42 35 1 
75 42 131 1 
76 43 36 1 
77 43 128 1 
78 43 129 1 
79 43 130 1 
80 44 37 1 
81 45 46 1 
82 46 126 1 
83 46 127 1 
84 48 40 1 
85 48 123 1 
86 48 124 1 
87 48 125 1 
88 50 42 1 
89 50 59 2 
90 51 49 1 
91 52 44 1 
92 52 118 1 
93 52 119 1 
94 52 120 1 
95 53 45 1 
96 54 63 1 
97 54 45 1 
98 54 161 1 
99 55 47 2 
100 56 60 1 
101 56 47 1 
102 56 116 1 
103 56 117 1 
104 57 49 1 
105 58 66 1 
106 58 49 1 
107 58 160 1 
108 60 50 1 
109 61 53 1 
110 62 53 2 
111 63 61 1 
112 64 57 1 
113 65 57 2 
114 66 64 1 
115 67 60 1 
116 67 72 1 
117 67 114 1 
118 67 115 1 
119 68 61 1 
120 68 112 1 
121 68 113 1 
122 69 63 2 
123 70 64 1 
124 70 74 1 
125 71 66 2 
126 73 68 1 
127 73 76 2 
128 73 77 1 
129 74 78 1 
130 75 72 1 
131 77 82 2 
132 79 84 1 
133 79 74 2 
134 79 104 1 
135 80 75 1 
136 81 76 1 
137 82 85 1 
138 83 78 2 
139 84 86 2 
140 84 97 1 
141 85 81 2 
142 86 88 1 
143 86 83 1 
144 87 85 1 
145 89 87 1 
146 89 96 1 
147 90 88 1 
148 91 90 1 
149 92 90 1 
150 93 90 1 
151 94 89 1 
152 95 89 1 
153 98 83 1 
154 99 82 1 
155 100 81 1 
156 101 80 1 
157 102 80 1 
158 103 80 1 
159 105 78 1 
160 106 77 1 
161 107 76 1 
162 108 72 1 
163 109 72 1 
164 110 70 1 
165 111 70 1 
166 121 51 1 
167 122 51 1 
168 156 3 1 
169 157 3 1 
170 158 2 1 
171 159 2 1 
@<TRIPOS>SUBSTRUCTURE
1 NIL_1 1 RESIDUE 1 A NIL 1
