@<TRIPOS>MOLECULE
NIL
162 171 1 0 0
POLYMER
CHARGES


@<TRIPOS>ATOM
1 CQ 89.5572 55.4872 -30.0759 C.3 1 NIL_1    0.000
2 C_1816 88.758 54.171 -29.996 C.3 1 NIL_1    0.000
3 C_1818 88.620 56.541 -29.463 C.3 1 NIL_1    0.000
4 C_1854 90.039 55.866 -31.461 C.2 1 NIL_1    0.000
5 NH 90.851 55.437 -29.405 N.am 1 NIL_1    0.000
6 N 87.757 54.314 -28.918 N.am 1 NIL_1    0.000
7 CP 87.613 55.752 -28.596 C.3 1 NIL_1    0.000
8 N 91.378 56.067 -31.410 N.am 1 NIL_1    0.000
9 O 89.350 55.994 -32.455 O.2 1 NIL_1    0.000
10 C_1856 91.880 55.812 -30.182 C.2 1 NIL_1    0.000
11 C_1841 87.037 53.275 -28.406 C.2 1 NIL_1    0.000
12 C_1838 87.679 56.214 -27.134 C.2 1 NIL_1    0.000
13 C_1868 92.182 56.590 -32.528 C.3 1 NIL_1    0.000
14 O 93.038 55.912 -29.826 O.2 1 NIL_1    0.000
15 O 87.292 52.130 -28.728 O.2 1 NIL_1    0.000
16 C_1840 85.929 53.588 -27.403 C.3 1 NIL_1    0.000
17 O 86.884 57.070 -26.792 O.2 1 NIL_1    0.000
18 N 88.564 55.703 -26.217 N.am 1 NIL_1    0.000
19 C_1869 91.974 58.084 -32.705 C.2 1 NIL_1    0.000
20 N 84.958 52.480 -27.179 N.am 1 NIL_1    0.000
21 C_1829 89.601 54.674 -26.473 C.3 1 NIL_1    0.000
22 C_1871 88.574 56.246 -24.825 C.3 1 NIL_1    0.000
23 C_2204 92.266 58.944 -31.725 C.2 1 NIL_1    0.000
24 C_2212 91.500 58.567 -33.856 C.2 1 NIL_1    0.000
25 C_1843 84.808 51.887 -25.949 C.2 1 NIL_1    0.000
26 C_1872 83.946 52.459 -28.256 C.3 1 NIL_1    0.000
27 C_1830 89.413 53.381 -25.699 C.2 1 NIL_1    0.000
28 C_1876 89.874 56.075 -24.007 C.3 1 NIL_1    0.000
29 C_2206 92.081 60.256 -31.882 C.2 1 NIL_1    0.000
30 C_2210 91.312 59.878 -34.018 C.2 1 NIL_1    0.000
31 AP 84.019 50.576 -25.696 C.3 1 NIL_1    0.000
32 O 85.255 52.457 -24.973 O.2 1 NIL_1    0.000
33 C_1879 84.296 51.527 -29.431 C.3 1 NIL_1    0.000
34 O 88.415 53.156 -25.043 O.2 1 NIL_1    0.000
35 N 90.425 52.479 -25.774 N.am 1 NIL_1    0.000
36 O 89.825 56.944 -22.858 O.3 1 NIL_1    0.000
37 C_2208 91.594 60.738 -33.037 C.2 1 NIL_1    0.000
38 C_1827 83.424 49.724 -26.838 C.3 1 NIL_1    0.000
39 N 84.602 49.513 -24.817 N.am 1 NIL_1    0.000
40 O 83.073 51.177 -30.110 O.3 1 NIL_1    0.000
41 C_1813 91.655 52.629 -26.558 C.3 1 NIL_1    0.000
42 BP 90.406 51.178 -25.094 C.3 1 NIL_1    0.000
43 C_1878 91.034 56.936 -22.072 C.3 1 NIL_1    0.000
44 O 91.371 62.071 -33.284 O.3 1 NIL_1    0.000
45 AQ 82.761 48.571 -26.057 C.3 1 NIL_1    0.000
46 C_1825 83.522 48.513 -24.719 C.3 1 NIL_1    0.000
47 C_1844 85.907 49.146 -24.593 C.2 1 NIL_1    0.000
48 C_1881 83.234 50.264 -31.213 C.3 1 NIL_1    0.000
49 BQ 92.552 51.415 -26.259 C.3 1 NIL_1    0.000
50 C_1833 89.311 50.292 -25.677 C.2 1 NIL_1    0.000
51 C_1815 91.805 50.553 -25.223 C.3 1 NIL_1    0.000
52 C_2271 91.420 63.019 -32.190 C.3 1 NIL_1    0.000
53 C_1846 82.751 47.242 -26.774 C.2 1 NIL_1    0.000
54 NH 81.331 48.736 -25.854 N.am 1 NIL_1    0.000
55 O 86.161 48.061 -24.106 O.2 1 NIL_1    0.000
56 C_1835 87.025 50.108 -24.962 C.3 1 NIL_1    0.000
57 C_1850 92.896 50.646 -27.513 C.2 1 NIL_1    0.000
58 NH 93.891 51.801 -25.845 N.am 1 NIL_1    0.000
59 O 89.146 50.213 -26.882 O.2 1 NIL_1    0.000
60 N 88.440 49.694 -24.822 N.am 1 NIL_1    0.000
61 N 81.473 46.794 -26.825 N.am 1 NIL_1    0.000
62 O 83.725 46.652 -27.202 O.2 1 NIL_1    0.000
63 C_1848 80.611 47.677 -26.258 C.2 1 NIL_1    0.000
64 N 94.239 50.687 -27.674 N.am 1 NIL_1    0.000
65 O 92.108 50.090 -28.256 O.2 1 NIL_1    0.000
66 C_1852 94.849 51.386 -26.689 C.2 1 NIL_1    0.000
67 C_1870 88.806 49.213 -23.466 C.3 1 NIL_1    0.000
68 C_1866 81.111 45.452 -27.329 C.3 1 NIL_1    0.000
69 O 79.411 47.559 -26.109 O.2 1 NIL_1    0.000
70 C_1864 94.950 50.095 -28.817 C.3 1 NIL_1    0.000
71 O 96.036 51.615 -26.577 O.2 1 NIL_1    0.000
72 C_1873 89.347 47.768 -23.508 C.3 1 NIL_1    0.000
73 C_1867 79.711 45.275 -27.888 C.2 1 NIL_1    0.000
74 C_1865 95.394 48.662 -28.590 C.2 1 NIL_1    0.000
75 O 89.636 47.294 -22.170 O.3 1 NIL_1    0.000
76 C_2172 79.411 45.709 -29.115 C.2 1 NIL_1    0.000
77 C_2180 78.755 44.693 -27.159 C.2 1 NIL_1    0.000
78 C_2196 94.784 47.653 -29.219 C.2 1 NIL_1    0.000
79 C_2188 96.417 48.384 -27.777 C.2 1 NIL_1    0.000
80 C_1875 88.501 46.926 -21.353 C.3 1 NIL_1    0.000
81 C_2174 78.178 45.567 -29.606 C.2 1 NIL_1    0.000
82 C_2178 77.522 44.552 -27.647 C.2 1 NIL_1    0.000
83 C_2194 95.196 46.394 -29.052 C.2 1 NIL_1    0.000
84 C_2190 96.828 47.128 -27.604 C.2 1 NIL_1    0.000
85 C_2176 77.217 44.984 -28.873 C.2 1 NIL_1    0.000
86 C_2192 96.231 46.121 -28.246 C.2 1 NIL_1    0.000
87 O 75.924 44.801 -29.297 O.3 1 NIL_1    0.000
88 O 96.717 44.855 -28.036 O.3 1 NIL_1    0.000
89 C_2273 75.555 45.145 -30.653 C.3 1 NIL_1    0.000
90 C_2269 96.509 43.846 -29.055 C.3 1 NIL_1    0.000
91 H_22691 96.856 44.223 -30.022 H 1 NIL_1    0.000
92 H_22692 95.449 43.585 -29.107 H 1 NIL_1    0.000
93 H_22693 97.085 42.956 -28.787 H 1 NIL_1    0.000
94 H_22731 74.502 44.889 -30.800 H 1 NIL_1    0.000
95 H_22732 76.168 44.574 -31.355 H 1 NIL_1    0.000
96 H_22733 75.692 46.218 -30.812 H 1 NIL_1    0.000
97 H_2190 97.667 46.927 -26.941 H 1 NIL_1    0.000
98 H_2194 94.674 45.606 -29.587 H 1 NIL_1    0.000
99 H_2178 76.756 44.080 -27.034 H 1 NIL_1    0.000
100 H_2174 77.981 45.938 -30.609 H 1 NIL_1    0.000
101 H_18751 87.866 47.798 -21.182 H 1 NIL_1    0.000
102 H_18752 88.866 46.551 -20.393 H 1 NIL_1    0.000
103 H_18753 87.928 46.141 -21.855 H 1 NIL_1    0.000
104 H_2188 96.931 49.186 -27.254 H 1 NIL_1    0.000
105 H_2196 93.947 47.853 -29.885 H 1 NIL_1    0.000
106 H_2180 78.974 44.335 -26.156 H 1 NIL_1    0.000
107 H_2172 80.175 46.189 -29.723 H 1 NIL_1    0.000
108 H_18731 88.631 47.092 -23.982 H 1 NIL_1    0.000
109 H_18732 90.280 47.752 -24.078 H 1 NIL_1    0.000
110 H_18641 95.827 50.710 -29.037 H 1 NIL_1    0.000
111 H_18642 94.298 50.145 -29.695 H 1 NIL_1    0.000
112 H_18661 81.259 44.745 -26.507 H 1 NIL_1    0.000
113 H_18662 81.823 45.179 -28.113 H 1 NIL_1    0.000
114 H_18701 87.931 49.256 -22.813 H 1 NIL_1    0.000
115 H_18702 89.565 49.845 -23.007 H 1 NIL_1    0.000
116 H_18351 86.849 50.410 -25.997 H 1 NIL_1    0.000
117 H_18352 86.906 50.969 -24.305 H 1 NIL_1    0.000
118 H_22711 90.692 62.734 -31.425 H 1 NIL_1    0.000
119 H_22712 91.173 64.010 -32.576 H 1 NIL_1    0.000
120 H_22713 92.429 63.040 -31.771 H 1 NIL_1    0.000
121 H_18151 92.306 50.609 -24.253 H 1 NIL_1    0.000
122 H_18152 91.756 49.502 -25.515 H 1 NIL_1    0.000
123 H_18811 82.251 50.047 -31.638 H 1 NIL_1    0.000
124 H_18812 83.692 49.338 -30.853 H 1 NIL_1    0.000
125 H_18813 83.871 50.724 -31.973 H 1 NIL_1    0.000
126 H_18251 82.865 48.781 -23.886 H 1 NIL_1    0.000
127 H_18252 83.910 47.506 -24.553 H 1 NIL_1    0.000
128 H_18781 90.950 57.686 -21.282 H 1 NIL_1    0.000
129 H_18782 91.885 57.178 -22.716 H 1 NIL_1    0.000
130 H_18783 91.172 55.946 -21.631 H 1 NIL_1    0.000
131 HP 90.191 51.385 -24.046 H 1 NIL_1    0.000
132 H_18131 92.162 53.553 -26.263 H 1 NIL_1    0.000
133 H_18132 91.404 52.680 -27.621 H 1 NIL_1    0.000
134 H_18271 82.678 50.230 -27.449 H 1 NIL_1    0.000
135 H_18272 84.227 49.336 -27.467 H 1 NIL_1    0.000
136 H_18791 84.966 52.038 -30.127 H 1 NIL_1    0.000
137 H_18792 84.780 50.616 -29.074 H 1 NIL_1    0.000
138 HP 83.151 50.965 -25.152 H 1 NIL_1    0.000
139 H_2210 90.922 60.248 -34.961 H 1 NIL_1    0.000
140 H_2206 92.335 60.912 -31.055 H 1 NIL_1    0.000
141 H_18761 89.986 55.042 -23.669 H 1 NIL_1    0.000
142 H_18762 90.737 56.369 -24.610 H 1 NIL_1    0.000
143 H_18721 83.825 53.466 -28.664 H 1 NIL_1    0.000
144 H_18722 82.977 52.206 -27.827 H 1 NIL_1    0.000
145 H_2212 91.264 57.893 -34.677 H 1 NIL_1    0.000
146 H_2204 92.660 58.580 -30.779 H 1 NIL_1    0.000
147 H_18711 87.754 55.777 -24.272 H 1 NIL_1    0.000
148 H_18712 88.373 57.320 -24.879 H 1 NIL_1    0.000
149 H_18291 90.583 55.080 -26.232 H 1 NIL_1    0.000
150 H_18292 89.650 54.389 -27.511 H 1 NIL_1    0.000
151 H_18401 86.424 53.862 -26.471 H 1 NIL_1    0.000
152 H_18402 85.394 54.473 -27.757 H 1 NIL_1    0.000
153 H_18681 91.904 56.058 -33.440 H 1 NIL_1    0.000
154 H_18682 93.242 56.393 -32.348 H 1 NIL_1    0.000
155 HP 86.614 56.041 -28.937 H 1 NIL_1    0.000
156 H_18181 88.074 57.072 -30.249 H 1 NIL_1    0.000
157 H_18182 89.175 57.286 -28.886 H 1 NIL_1    0.000
158 H_18161 88.216 54.004 -30.932 H 1 NIL_1    0.000
159 H_18162 89.417 53.319 -29.801 H 1 NIL_1    0.000
160 HH 94.065 52.384 -25.040 H 1 NIL_1    0.000
161 HH 80.938 49.534 -25.377 H 1 NIL_1    0.000
162 HH 90.939 55.209 -28.427 H 1 NIL_1    0.000
@<TRIPOS>BOND
1 1 2 1 
2 3 1 1 
3 4 1 1 
4 5 10 1 
5 5 1 1 
6 5 162 1 
7 6 2 1 
8 7 3 1 
9 7 6 1 
10 7 155 1 
11 8 4 1 
12 9 4 2 
13 10 8 1 
14 11 6 1 
15 12 7 1 
16 13 8 1 
17 13 153 1 
18 13 154 1 
19 14 10 2 
20 15 11 2 
21 16 20 1 
22 16 11 1 
23 16 151 1 
24 16 152 1 
25 17 12 2 
26 18 12 1 
27 19 13 1 
28 20 25 1 
29 21 18 1 
30 21 27 1 
31 21 149 1 
32 21 150 1 
33 22 18 1 
34 22 28 1 
35 22 147 1 
36 22 148 1 
37 23 19 2 
38 23 146 1 
39 24 30 2 
40 24 19 1 
41 24 145 1 
42 25 31 1 
43 26 20 1 
44 26 33 1 
45 26 143 1 
46 26 144 1 
47 27 35 1 
48 28 141 1 
49 28 142 1 
50 29 23 1 
51 29 140 1 
52 30 37 1 
53 30 139 1 
54 31 138 1 
55 32 25 2 
56 33 136 1 
57 33 137 1 
58 34 27 2 
59 36 28 1 
60 37 29 2 
61 38 45 1 
62 38 31 1 
63 38 134 1 
64 38 135 1 
65 39 46 1 
66 39 31 1 
67 39 47 1 
68 40 33 1 
69 41 35 1 
70 41 49 1 
71 41 132 1 
72 41 133 1 
73 42 51 1 
74 42 35 1 
75 42 131 1 
76 43 36 1 
77 43 128 1 
78 43 129 1 
79 43 130 1 
80 44 37 1 
81 45 46 1 
82 46 126 1 
83 46 127 1 
84 48 40 1 
85 48 123 1 
86 48 124 1 
87 48 125 1 
88 50 42 1 
89 50 59 2 
90 51 49 1 
91 52 44 1 
92 52 118 1 
93 52 119 1 
94 52 120 1 
95 53 45 1 
96 54 63 1 
97 54 45 1 
98 54 161 1 
99 55 47 2 
100 56 60 1 
101 56 47 1 
102 56 116 1 
103 56 117 1 
104 57 49 1 
105 58 66 1 
106 58 49 1 
107 58 160 1 
108 60 50 1 
109 61 53 1 
110 62 53 2 
111 63 61 1 
112 64 57 1 
113 65 57 2 
114 66 64 1 
115 67 60 1 
116 67 72 1 
117 67 114 1 
118 67 115 1 
119 68 61 1 
120 68 112 1 
121 68 113 1 
122 69 63 2 
123 70 64 1 
124 70 74 1 
125 71 66 2 
126 73 68 1 
127 73 76 2 
128 73 77 1 
129 74 78 1 
130 75 72 1 
131 77 82 2 
132 79 84 1 
133 79 74 2 
134 79 104 1 
135 80 75 1 
136 81 76 1 
137 82 85 1 
138 83 78 2 
139 84 86 2 
140 84 97 1 
141 85 81 2 
142 86 88 1 
143 86 83 1 
144 87 85 1 
145 89 87 1 
146 89 96 1 
147 90 88 1 
148 91 90 1 
149 92 90 1 
150 93 90 1 
151 94 89 1 
152 95 89 1 
153 98 83 1 
154 99 82 1 
155 100 81 1 
156 101 80 1 
157 102 80 1 
158 103 80 1 
159 105 78 1 
160 106 77 1 
161 107 76 1 
162 108 72 1 
163 109 72 1 
164 110 70 1 
165 111 70 1 
166 121 51 1 
167 122 51 1 
168 156 3 1 
169 157 3 1 
170 158 2 1 
171 159 2 1 
@<TRIPOS>SUBSTRUCTURE
1 NIL_1 1 RESIDUE 1 A NIL 1
