@<TRIPOS>MOLECULE
NIL
162 171 1 0 0
POLYMER
CHARGES


@<TRIPOS>ATOM
1 CQ 85.2936 51.6279 -35.7493 C.3 1 NIL_1    0.000
2 C_1816 84.086 50.696 -35.599 C.3 1 NIL_1    0.000
3 C_1818 86.247 51.220 -34.622 C.3 1 NIL_1    0.000
4 C_1854 84.894 53.081 -35.640 C.2 1 NIL_1    0.000
5 NH 85.907 51.650 -37.068 N.am 1 NIL_1    0.000
6 N 84.031 50.317 -34.181 N.am 1 NIL_1    0.000
7 CP 85.356 50.543 -33.557 C.3 1 NIL_1    0.000
8 N 85.313 53.716 -36.760 N.am 1 NIL_1    0.000
9 O 84.298 53.594 -34.711 O.2 1 NIL_1    0.000
10 C_1856 85.927 52.872 -37.623 C.2 1 NIL_1    0.000
11 C_1841 82.937 49.766 -33.589 C.2 1 NIL_1    0.000
12 C_1838 86.002 49.229 -33.108 C.2 1 NIL_1    0.000
13 C_1868 85.110 55.150 -37.020 C.3 1 NIL_1    0.000
14 O 86.408 53.153 -38.703 O.2 1 NIL_1    0.000
15 O 81.958 49.463 -34.247 O.2 1 NIL_1    0.000
16 C_1840 82.974 49.583 -32.077 C.3 1 NIL_1    0.000
17 O 85.804 48.219 -33.759 O.2 1 NIL_1    0.000
18 N 86.803 49.184 -31.999 N.am 1 NIL_1    0.000
19 C_1869 84.024 55.374 -38.052 C.2 1 NIL_1    0.000
20 N 81.807 48.861 -31.520 N.am 1 NIL_1    0.000
21 C_1829 87.417 47.910 -31.565 C.3 1 NIL_1    0.000
22 C_1871 87.087 50.287 -31.047 C.3 1 NIL_1    0.000
23 C_2204 84.332 55.743 -39.298 C.2 1 NIL_1    0.000
24 C_2212 82.739 55.201 -37.733 C.2 1 NIL_1    0.000
25 C_1843 81.726 47.500 -31.615 C.2 1 NIL_1    0.000
26 C_1872 80.929 49.721 -30.693 C.3 1 NIL_1    0.000
27 C_1830 86.552 47.098 -30.608 C.2 1 NIL_1    0.000
28 C_1876 88.473 50.940 -31.231 C.3 1 NIL_1    0.000
29 C_2206 83.377 55.937 -40.210 C.2 1 NIL_1    0.000
30 C_2210 81.783 55.392 -38.644 C.2 1 NIL_1    0.000
31 AP 80.609 46.747 -30.889 C.3 1 NIL_1    0.000
32 O 82.541 46.880 -32.273 O.2 1 NIL_1    0.000
33 C_1879 79.548 49.993 -31.328 C.3 1 NIL_1    0.000
34 O 85.499 47.527 -30.172 O.2 1 NIL_1    0.000
35 N 87.029 45.875 -30.241 N.am 1 NIL_1    0.000
36 O 88.505 51.653 -32.482 O.3 1 NIL_1    0.000
37 C_2208 82.086 55.759 -39.891 C.2 1 NIL_1    0.000
38 C_1827 79.538 46.214 -31.868 C.3 1 NIL_1    0.000
39 N 81.141 45.597 -30.132 N.am 1 NIL_1    0.000
40 O 79.669 50.619 -32.629 O.3 1 NIL_1    0.000
41 C_1813 88.277 45.283 -30.726 C.3 1 NIL_1    0.000
42 BP 86.444 45.025 -29.185 C.3 1 NIL_1    0.000
43 C_1878 89.752 52.305 -32.792 C.3 1 NIL_1    0.000
44 O 81.046 55.925 -40.773 O.3 1 NIL_1    0.000
45 AQ 79.660 44.680 -31.813 C.3 1 NIL_1    0.000
46 C_1825 80.436 44.372 -30.526 C.3 1 NIL_1    0.000
47 C_1844 82.115 45.700 -29.186 C.2 1 NIL_1    0.000
48 C_1881 80.201 51.962 -32.660 C.3 1 NIL_1    0.000
49 BQ 88.435 43.893 -30.087 C.3 1 NIL_1    0.000
50 C_1833 84.980 44.675 -29.437 C.2 1 NIL_1    0.000
51 C_1815 87.310 43.755 -29.042 C.3 1 NIL_1    0.000
52 C_2271 81.320 56.280 -42.151 C.3 1 NIL_1    0.000
53 C_1846 80.356 44.084 -33.018 C.2 1 NIL_1    0.000
54 NH 78.403 43.961 -31.892 N.am 1 NIL_1    0.000
55 O 82.536 46.786 -28.836 O.2 1 NIL_1    0.000
56 C_1835 82.679 44.419 -28.583 C.3 1 NIL_1    0.000
57 C_1850 88.408 42.801 -31.134 C.2 1 NIL_1    0.000
58 NH 89.774 43.674 -29.567 N.am 1 NIL_1    0.000
59 O 84.574 44.548 -30.579 O.2 1 NIL_1    0.000
60 N 84.136 44.518 -28.374 N.am 1 NIL_1    0.000
61 N 79.549 43.131 -33.547 N.am 1 NIL_1    0.000
62 O 81.460 44.381 -33.431 O.2 1 NIL_1    0.000
63 C_1848 78.374 43.039 -32.868 C.2 1 NIL_1    0.000
64 N 89.619 42.192 -31.152 N.am 1 NIL_1    0.000
65 O 87.467 42.529 -31.857 O.2 1 NIL_1    0.000
66 C_1852 90.458 42.725 -30.227 C.2 1 NIL_1    0.000
67 C_1870 84.504 44.473 -26.942 C.3 1 NIL_1    0.000
68 C_1866 79.977 42.258 -34.661 C.3 1 NIL_1    0.000
69 O 77.451 42.272 -33.061 O.2 1 NIL_1    0.000
70 C_1864 89.984 41.154 -32.139 C.3 1 NIL_1    0.000
71 O 91.621 42.436 -30.019 O.2 1 NIL_1    0.000
72 C_1873 84.547 43.039 -26.388 C.3 1 NIL_1    0.000
73 C_1867 78.891 41.493 -35.394 C.2 1 NIL_1    0.000
74 C_1865 91.048 40.149 -31.732 C.2 1 NIL_1    0.000
75 O 84.919 43.122 -24.996 O.3 1 NIL_1    0.000
76 C_2172 78.671 40.199 -35.137 C.2 1 NIL_1    0.000
77 C_2180 78.117 42.112 -36.288 C.2 1 NIL_1    0.000
78 C_2196 90.812 39.259 -30.765 C.2 1 NIL_1    0.000
79 C_2188 92.245 40.144 -32.327 C.2 1 NIL_1    0.000
80 C_1875 84.958 41.868 -24.283 C.3 1 NIL_1    0.000
81 C_2174 77.696 39.535 -35.761 C.2 1 NIL_1    0.000
82 C_2178 77.144 41.450 -36.915 C.2 1 NIL_1    0.000
83 C_2194 91.751 38.385 -30.401 C.2 1 NIL_1    0.000
84 C_2190 93.188 39.271 -31.965 C.2 1 NIL_1    0.000
85 C_2176 76.924 40.157 -36.665 C.2 1 NIL_1    0.000
86 C_2192 92.949 38.378 -30.992 C.2 1 NIL_1    0.000
87 O 75.896 39.544 -37.333 O.3 1 NIL_1    0.000
88 O 93.860 37.446 -30.559 O.3 1 NIL_1    0.000
89 C_2273 75.996 38.126 -37.613 C.3 1 NIL_1    0.000
90 C_2269 95.203 37.442 -31.105 C.3 1 NIL_1    0.000
91 H_22691 95.162 37.241 -32.179 H 1 NIL_1    0.000
92 H_22692 95.779 36.654 -30.612 H 1 NIL_1    0.000
93 H_22693 95.678 38.408 -30.917 H 1 NIL_1    0.000
94 H_22731 75.978 37.561 -36.679 H 1 NIL_1    0.000
95 H_22732 76.919 37.926 -38.164 H 1 NIL_1    0.000
96 H_22733 75.139 37.831 -38.225 H 1 NIL_1    0.000
97 H_2190 94.146 39.308 -32.480 H 1 NIL_1    0.000
98 H_2194 91.535 37.669 -29.611 H 1 NIL_1    0.000
99 H_2178 76.523 41.973 -37.638 H 1 NIL_1    0.000
100 H_2174 77.536 38.490 -35.508 H 1 NIL_1    0.000
101 H_18751 85.691 41.204 -24.750 H 1 NIL_1    0.000
102 H_18752 83.968 41.404 -24.302 H 1 NIL_1    0.000
103 H_18753 85.249 42.066 -23.247 H 1 NIL_1    0.000
104 H_2188 92.461 40.864 -33.114 H 1 NIL_1    0.000
105 H_2196 89.847 39.245 -30.263 H 1 NIL_1    0.000
106 H_2180 78.272 43.167 -36.502 H 1 NIL_1    0.000
107 H_2172 79.281 39.678 -34.401 H 1 NIL_1    0.000
108 H_18731 83.562 42.569 -26.472 H 1 NIL_1    0.000
109 H_18732 85.288 42.441 -26.926 H 1 NIL_1    0.000
110 H_18641 90.304 41.671 -33.047 H 1 NIL_1    0.000
111 H_18642 89.080 40.597 -32.398 H 1 NIL_1    0.000
112 H_18661 80.708 41.551 -34.260 H 1 NIL_1    0.000
113 H_18662 80.505 42.878 -35.391 H 1 NIL_1    0.000
114 H_18701 83.769 45.048 -26.374 H 1 NIL_1    0.000
115 H_18702 85.471 44.938 -26.763 H 1 NIL_1    0.000
116 H_18351 82.153 44.239 -27.642 H 1 NIL_1    0.000
117 H_18352 82.501 43.571 -29.243 H 1 NIL_1    0.000
118 H_22711 80.376 56.309 -42.702 H 1 NIL_1    0.000
119 H_22712 81.977 55.529 -42.598 H 1 NIL_1    0.000
120 H_22713 81.791 57.266 -42.188 H 1 NIL_1    0.000
121 H_18151 87.718 43.699 -28.029 H 1 NIL_1    0.000
122 H_18152 86.723 42.848 -29.213 H 1 NIL_1    0.000
123 H_18811 80.056 52.376 -33.660 H 1 NIL_1    0.000
124 H_18812 81.269 51.942 -32.431 H 1 NIL_1    0.000
125 H_18813 79.675 52.581 -31.929 H 1 NIL_1    0.000
126 H_18251 79.744 44.105 -29.722 H 1 NIL_1    0.000
127 H_18252 81.127 43.545 -30.701 H 1 NIL_1    0.000
128 H_18781 90.006 53.007 -31.992 H 1 NIL_1    0.000
129 H_18782 89.638 52.847 -33.735 H 1 NIL_1    0.000
130 H_18783 90.538 51.552 -32.892 H 1 NIL_1    0.000
131 HP 86.514 45.614 -28.270 H 1 NIL_1    0.000
132 H_18131 89.109 45.930 -30.431 H 1 NIL_1    0.000
133 H_18132 88.250 45.205 -31.816 H 1 NIL_1    0.000
134 H_18271 78.549 46.517 -31.514 H 1 NIL_1    0.000
135 H_18272 79.664 46.597 -32.883 H 1 NIL_1    0.000
136 H_18791 79.007 49.054 -31.458 H 1 NIL_1    0.000
137 H_18792 78.962 50.646 -30.676 H 1 NIL_1    0.000
138 HP 80.117 47.404 -30.172 H 1 NIL_1    0.000
139 H_2210 80.743 55.242 -38.361 H 1 NIL_1    0.000
140 H_2206 83.679 56.238 -41.209 H 1 NIL_1    0.000
141 H_18761 88.651 51.652 -30.419 H 1 NIL_1    0.000
142 H_18762 89.259 50.180 -31.228 H 1 NIL_1    0.000
143 H_18721 81.409 50.683 -30.500 H 1 NIL_1    0.000
144 H_18722 80.790 49.260 -29.712 H 1 NIL_1    0.000
145 H_2212 82.463 54.901 -36.726 H 1 NIL_1    0.000
146 H_2204 85.372 55.887 -39.579 H 1 NIL_1    0.000
147 H_18711 87.047 49.878 -30.033 H 1 NIL_1    0.000
148 H_18712 86.318 51.057 -31.094 H 1 NIL_1    0.000
149 H_18291 88.365 48.107 -31.057 H 1 NIL_1    0.000
150 H_18292 87.629 47.288 -32.440 H 1 NIL_1    0.000
151 H_18401 83.868 49.016 -31.818 H 1 NIL_1    0.000
152 H_18402 83.079 50.579 -31.638 H 1 NIL_1    0.000
153 H_18681 86.056 55.579 -37.364 H 1 NIL_1    0.000
154 H_18682 84.841 55.655 -36.089 H 1 NIL_1    0.000
155 HP 85.212 51.220 -32.714 H 1 NIL_1    0.000
156 H_18181 86.777 52.086 -34.224 H 1 NIL_1    0.000
157 H_18182 86.988 50.513 -35.004 H 1 NIL_1    0.000
158 H_18161 83.162 51.198 -35.902 H 1 NIL_1    0.000
159 H_18162 84.230 49.790 -36.196 H 1 NIL_1    0.000
160 HH 90.174 44.256 -28.845 H 1 NIL_1    0.000
161 HH 77.665 44.087 -31.216 H 1 NIL_1    0.000
162 HH 86.309 50.829 -37.495 H 1 NIL_1    0.000
@<TRIPOS>BOND
1 1 2 1 
2 3 1 1 
3 4 1 1 
4 5 10 1 
5 5 1 1 
6 5 162 1 
7 6 2 1 
8 7 3 1 
9 7 6 1 
10 7 155 1 
11 8 4 1 
12 9 4 2 
13 10 8 1 
14 11 6 1 
15 12 7 1 
16 13 8 1 
17 13 153 1 
18 13 154 1 
19 14 10 2 
20 15 11 2 
21 16 20 1 
22 16 11 1 
23 16 151 1 
24 16 152 1 
25 17 12 2 
26 18 12 1 
27 19 13 1 
28 20 25 1 
29 21 18 1 
30 21 27 1 
31 21 149 1 
32 21 150 1 
33 22 18 1 
34 22 28 1 
35 22 147 1 
36 22 148 1 
37 23 19 2 
38 23 146 1 
39 24 30 2 
40 24 19 1 
41 24 145 1 
42 25 31 1 
43 26 20 1 
44 26 33 1 
45 26 143 1 
46 26 144 1 
47 27 35 1 
48 28 141 1 
49 28 142 1 
50 29 23 1 
51 29 140 1 
52 30 37 1 
53 30 139 1 
54 31 138 1 
55 32 25 2 
56 33 136 1 
57 33 137 1 
58 34 27 2 
59 36 28 1 
60 37 29 2 
61 38 45 1 
62 38 31 1 
63 38 134 1 
64 38 135 1 
65 39 46 1 
66 39 31 1 
67 39 47 1 
68 40 33 1 
69 41 35 1 
70 41 49 1 
71 41 132 1 
72 41 133 1 
73 42 51 1 
74 42 35 1 
75 42 131 1 
76 43 36 1 
77 43 128 1 
78 43 129 1 
79 43 130 1 
80 44 37 1 
81 45 46 1 
82 46 126 1 
83 46 127 1 
84 48 40 1 
85 48 123 1 
86 48 124 1 
87 48 125 1 
88 50 42 1 
89 50 59 2 
90 51 49 1 
91 52 44 1 
92 52 118 1 
93 52 119 1 
94 52 120 1 
95 53 45 1 
96 54 63 1 
97 54 45 1 
98 54 161 1 
99 55 47 2 
100 56 60 1 
101 56 47 1 
102 56 116 1 
103 56 117 1 
104 57 49 1 
105 58 66 1 
106 58 49 1 
107 58 160 1 
108 60 50 1 
109 61 53 1 
110 62 53 2 
111 63 61 1 
112 64 57 1 
113 65 57 2 
114 66 64 1 
115 67 60 1 
116 67 72 1 
117 67 114 1 
118 67 115 1 
119 68 61 1 
120 68 112 1 
121 68 113 1 
122 69 63 2 
123 70 64 1 
124 70 74 1 
125 71 66 2 
126 73 68 1 
127 73 76 2 
128 73 77 1 
129 74 78 1 
130 75 72 1 
131 77 82 2 
132 79 84 1 
133 79 74 2 
134 79 104 1 
135 80 75 1 
136 81 76 1 
137 82 85 1 
138 83 78 2 
139 84 86 2 
140 84 97 1 
141 85 81 2 
142 86 88 1 
143 86 83 1 
144 87 85 1 
145 89 87 1 
146 89 96 1 
147 90 88 1 
148 91 90 1 
149 92 90 1 
150 93 90 1 
151 94 89 1 
152 95 89 1 
153 98 83 1 
154 99 82 1 
155 100 81 1 
156 101 80 1 
157 102 80 1 
158 103 80 1 
159 105 78 1 
160 106 77 1 
161 107 76 1 
162 108 72 1 
163 109 72 1 
164 110 70 1 
165 111 70 1 
166 121 51 1 
167 122 51 1 
168 156 3 1 
169 157 3 1 
170 158 2 1 
171 159 2 1 
@<TRIPOS>SUBSTRUCTURE
1 NIL_1 1 RESIDUE 1 A NIL 1
