@<TRIPOS>MOLECULE
NIL
162 171 1 0 0
POLYMER
CHARGES


@<TRIPOS>ATOM
1 CQ 97.7238 66.9995 -17.5416 C.3 1 NIL_1    0.000
2 C_1816 97.386 65.703 -18.289 C.3 1 NIL_1    0.000
3 C_1818 97.191 66.755 -16.122 C.3 1 NIL_1    0.000
4 C_1854 97.189 68.252 -18.196 C.2 1 NIL_1    0.000
5 NH 99.146 67.304 -17.579 N.am 1 NIL_1    0.000
6 N 97.334 64.630 -17.282 N.am 1 NIL_1    0.000
7 CP 97.329 65.231 -15.927 C.3 1 NIL_1    0.000
8 N 98.239 69.056 -18.488 N.am 1 NIL_1    0.000
9 O 96.022 68.503 -18.426 O.2 1 NIL_1    0.000
10 C_1856 99.419 68.498 -18.130 C.2 1 NIL_1    0.000
11 C_1841 97.168 63.316 -17.602 C.2 1 NIL_1    0.000
12 C_1838 98.587 64.900 -15.115 C.2 1 NIL_1    0.000
13 C_1868 98.109 70.381 -19.119 C.3 1 NIL_1    0.000
14 O 100.529 68.971 -18.273 O.2 1 NIL_1    0.000
15 O 97.084 62.982 -18.768 O.2 1 NIL_1    0.000
16 C_1840 96.999 62.295 -16.474 C.3 1 NIL_1    0.000
17 O 99.686 64.963 -15.634 O.2 1 NIL_1    0.000
18 N 98.436 64.530 -13.805 N.am 1 NIL_1    0.000
19 C_1869 97.518 71.429 -18.193 C.2 1 NIL_1    0.000
20 N 97.707 60.985 -16.572 N.am 1 NIL_1    0.000
21 C_1829 99.420 63.707 -13.036 C.3 1 NIL_1    0.000
22 C_1871 97.219 64.849 -13.023 C.3 1 NIL_1    0.000
23 C_2204 98.020 71.626 -16.968 C.2 1 NIL_1    0.000
24 C_2212 96.486 72.182 -18.592 C.2 1 NIL_1    0.000
25 C_1843 97.403 59.930 -15.757 C.2 1 NIL_1    0.000
26 C_1872 98.962 61.001 -17.366 C.3 1 NIL_1    0.000
27 C_1830 99.979 62.461 -13.719 C.2 1 NIL_1    0.000
28 C_1876 97.460 65.310 -11.566 C.3 1 NIL_1    0.000
29 C_2206 97.492 72.543 -16.156 C.2 1 NIL_1    0.000
30 C_2210 95.960 73.102 -17.781 C.2 1 NIL_1    0.000
31 AP 96.076 59.964 -14.992 C.3 1 NIL_1    0.000
32 O 98.148 58.972 -15.667 O.2 1 NIL_1    0.000
33 C_1879 98.805 60.414 -18.786 C.3 1 NIL_1    0.000
34 O 100.039 62.368 -14.927 O.2 1 NIL_1    0.000
35 N 100.463 61.436 -12.962 N.am 1 NIL_1    0.000
36 O 96.209 65.803 -11.043 O.3 1 NIL_1    0.000
37 C_2208 96.455 73.284 -16.550 C.2 1 NIL_1    0.000
38 C_1827 94.911 59.594 -15.939 C.3 1 NIL_1    0.000
39 N 96.000 59.045 -13.830 N.am 1 NIL_1    0.000
40 O 98.864 58.969 -18.760 O.3 1 NIL_1    0.000
41 C_1813 101.188 60.312 -13.574 C.3 1 NIL_1    0.000
42 BP 100.436 61.239 -11.488 C.3 1 NIL_1    0.000
43 C_1878 96.252 66.210 -9.660 C.3 1 NIL_1    0.000
44 O 95.946 74.220 -15.695 O.3 1 NIL_1    0.000
45 AQ 94.463 58.194 -15.495 C.3 1 NIL_1    0.000
46 C_1825 94.889 58.102 -14.025 C.3 1 NIL_1    0.000
47 C_1844 96.726 59.101 -12.679 C.2 1 NIL_1    0.000
48 C_1881 100.188 58.387 -18.796 C.3 1 NIL_1    0.000
49 BQ 101.867 59.523 -12.449 C.3 1 NIL_1    0.000
50 C_1833 99.115 61.351 -10.717 C.2 1 NIL_1    0.000
51 C_1815 101.055 59.853 -11.193 C.3 1 NIL_1    0.000
52 C_2271 94.533 74.105 -15.396 C.3 1 NIL_1    0.000
53 C_1846 95.087 57.084 -16.312 C.2 1 NIL_1    0.000
54 NH 93.059 57.889 -15.723 N.am 1 NIL_1    0.000
55 O 96.576 58.255 -11.817 O.2 1 NIL_1    0.000
56 C_1835 97.775 60.199 -12.530 C.3 1 NIL_1    0.000
57 C_1850 101.957 58.054 -12.778 C.2 1 NIL_1    0.000
58 NH 103.285 59.831 -12.328 N.am 1 NIL_1    0.000
59 O 99.147 61.923 -9.642 O.2 1 NIL_1    0.000
60 N 97.938 60.829 -11.194 N.am 1 NIL_1    0.000
61 N 94.090 56.337 -16.839 N.am 1 NIL_1    0.000
62 O 96.277 56.876 -16.460 O.2 1 NIL_1    0.000
63 C_1848 92.868 56.802 -16.488 C.2 1 NIL_1    0.000
64 N 103.266 57.733 -12.888 N.am 1 NIL_1    0.000
65 O 101.023 57.294 -12.945 O.2 1 NIL_1    0.000
66 C_1852 104.076 58.781 -12.608 C.2 1 NIL_1    0.000
67 C_1870 96.658 61.028 -10.459 C.3 1 NIL_1    0.000
68 C_1866 94.302 55.133 -17.661 C.3 1 NIL_1    0.000
69 O 91.791 56.330 -16.794 O.2 1 NIL_1    0.000
70 C_1864 103.742 56.428 -13.365 C.3 1 NIL_1    0.000
71 O 105.290 58.791 -12.619 O.2 1 NIL_1    0.000
72 C_1873 95.706 62.011 -11.157 C.3 1 NIL_1    0.000
73 C_1867 93.809 55.285 -19.087 C.2 1 NIL_1    0.000
74 C_1865 103.826 55.387 -12.272 C.2 1 NIL_1    0.000
75 O 94.536 62.197 -10.336 O.3 1 NIL_1    0.000
76 C_2172 94.296 56.242 -19.882 C.2 1 NIL_1    0.000
77 C_2180 92.881 54.457 -19.576 C.2 1 NIL_1    0.000
78 C_2196 104.888 55.334 -11.463 C.2 1 NIL_1    0.000
79 C_2188 102.847 54.495 -12.109 C.2 1 NIL_1    0.000
80 C_1875 93.591 63.157 -10.854 C.3 1 NIL_1    0.000
81 C_2174 93.855 56.375 -21.134 C.2 1 NIL_1    0.000
82 C_2178 92.438 54.587 -20.828 C.2 1 NIL_1    0.000
83 C_2194 104.976 54.401 -10.514 C.2 1 NIL_1    0.000
84 C_2190 102.931 53.563 -11.160 C.2 1 NIL_1    0.000
85 C_2176 92.918 55.556 -21.621 C.2 1 NIL_1    0.000
86 C_2192 103.995 53.499 -10.355 C.2 1 NIL_1    0.000
87 O 92.507 55.759 -22.914 O.3 1 NIL_1    0.000
88 O 104.008 52.508 -9.405 O.3 1 NIL_1    0.000
89 C_2273 91.272 55.154 -23.367 C.3 1 NIL_1    0.000
90 C_2269 105.254 52.165 -8.750 C.3 1 NIL_1    0.000
91 H_22691 105.071 51.327 -8.073 H 1 NIL_1    0.000
92 H_22692 105.616 53.020 -8.173 H 1 NIL_1    0.000
93 H_22693 105.994 51.872 -9.500 H 1 NIL_1    0.000
94 H_22731 90.462 55.420 -22.682 H 1 NIL_1    0.000
95 H_22732 91.387 54.068 -23.413 H 1 NIL_1    0.000
96 H_22733 91.042 55.533 -24.365 H 1 NIL_1    0.000
97 H_2190 102.124 52.843 -11.049 H 1 NIL_1    0.000
98 H_2194 105.859 54.395 -9.880 H 1 NIL_1    0.000
99 H_2178 91.684 53.888 -21.182 H 1 NIL_1    0.000
100 H_2174 94.263 57.164 -21.761 H 1 NIL_1    0.000
101 H_18751 92.794 63.308 -10.121 H 1 NIL_1    0.000
102 H_18752 93.169 62.779 -11.789 H 1 NIL_1    0.000
103 H_18753 94.104 64.105 -11.035 H 1 NIL_1    0.000
104 H_2188 101.972 54.519 -12.756 H 1 NIL_1    0.000
105 H_2196 105.695 56.055 -11.580 H 1 NIL_1    0.000
106 H_2180 92.475 53.666 -18.949 H 1 NIL_1    0.000
107 H_2172 95.056 56.927 -19.510 H 1 NIL_1    0.000
108 H_18731 96.203 62.971 -11.261 H 1 NIL_1    0.000
109 H_18732 95.403 61.639 -12.140 H 1 NIL_1    0.000
110 H_18641 104.725 56.554 -13.828 H 1 NIL_1    0.000
111 H_18642 103.061 56.084 -14.149 H 1 NIL_1    0.000
112 H_18661 93.786 54.298 -17.178 H 1 NIL_1    0.000
113 H_18662 95.366 54.888 -17.682 H 1 NIL_1    0.000
114 H_18701 96.859 61.418 -9.459 H 1 NIL_1    0.000
115 H_18702 96.150 60.073 -10.315 H 1 NIL_1    0.000
116 H_18351 98.697 59.695 -12.810 H 1 NIL_1    0.000
117 H_18352 97.576 61.000 -13.245 H 1 NIL_1    0.000
118 H_22711 93.944 74.237 -16.307 H 1 NIL_1    0.000
119 H_22712 94.263 74.883 -14.677 H 1 NIL_1    0.000
120 H_22713 94.332 73.123 -14.960 H 1 NIL_1    0.000
121 H_18151 101.668 59.866 -10.287 H 1 NIL_1    0.000
122 H_18152 100.268 59.104 -11.059 H 1 NIL_1    0.000
123 H_18811 100.714 58.734 -19.689 H 1 NIL_1    0.000
124 H_18812 100.084 57.301 -18.836 H 1 NIL_1    0.000
125 H_18813 100.749 58.669 -17.901 H 1 NIL_1    0.000
126 H_18251 94.060 58.407 -13.382 H 1 NIL_1    0.000
127 H_18252 95.189 57.082 -13.768 H 1 NIL_1    0.000
128 H_18781 96.481 65.345 -9.033 H 1 NIL_1    0.000
129 H_18782 95.276 66.616 -9.385 H 1 NIL_1    0.000
130 H_18783 97.019 66.977 -9.534 H 1 NIL_1    0.000
131 HP 101.104 61.995 -11.066 H 1 NIL_1    0.000
132 H_18131 101.928 60.679 -14.291 H 1 NIL_1    0.000
133 H_18132 100.466 59.682 -14.100 H 1 NIL_1    0.000
134 H_18271 94.098 60.309 -15.790 H 1 NIL_1    0.000
135 H_18272 95.196 59.617 -16.994 H 1 NIL_1    0.000
136 H_18791 97.837 60.700 -19.200 H 1 NIL_1    0.000
137 H_18792 99.594 60.799 -19.440 H 1 NIL_1    0.000
138 HP 95.921 60.976 -14.612 H 1 NIL_1    0.000
139 H_2210 95.127 73.704 -18.138 H 1 NIL_1    0.000
140 H_2206 97.912 72.681 -15.162 H 1 NIL_1    0.000
141 H_18761 97.798 64.484 -10.935 H 1 NIL_1    0.000
142 H_18762 98.200 66.115 -11.540 H 1 NIL_1    0.000
143 H_18721 99.738 60.447 -16.831 H 1 NIL_1    0.000
144 H_18722 99.327 62.028 -17.450 H 1 NIL_1    0.000
145 H_2212 96.065 72.048 -19.585 H 1 NIL_1    0.000
146 H_2204 98.865 71.034 -16.623 H 1 NIL_1    0.000
147 H_18711 96.565 63.975 -13.042 H 1 NIL_1    0.000
148 H_18712 96.693 65.675 -13.506 H 1 NIL_1    0.000
149 H_18291 98.940 63.343 -12.135 H 1 NIL_1    0.000
150 H_18292 100.268 64.330 -12.741 H 1 NIL_1    0.000
151 H_18401 97.291 62.738 -15.523 H 1 NIL_1    0.000
152 H_18402 95.921 62.124 -16.434 H 1 NIL_1    0.000
153 H_18681 97.484 70.270 -20.010 H 1 NIL_1    0.000
154 H_18682 99.094 70.718 -19.453 H 1 NIL_1    0.000
155 HP 96.445 64.852 -15.406 H 1 NIL_1    0.000
156 H_18181 96.132 67.023 -16.072 H 1 NIL_1    0.000
157 H_18182 97.729 67.329 -15.364 H 1 NIL_1    0.000
158 H_18161 96.402 65.782 -18.760 H 1 NIL_1    0.000
159 H_18162 98.140 65.485 -19.052 H 1 NIL_1    0.000
160 HH 103.627 60.755 -12.108 H 1 NIL_1    0.000
161 HH 92.311 58.419 -15.300 H 1 NIL_1    0.000
162 HH 99.851 66.647 -17.279 H 1 NIL_1    0.000
@<TRIPOS>BOND
1 1 2 1 
2 3 1 1 
3 4 1 1 
4 5 10 1 
5 5 1 1 
6 5 162 1 
7 6 2 1 
8 7 3 1 
9 7 6 1 
10 7 155 1 
11 8 4 1 
12 9 4 2 
13 10 8 1 
14 11 6 1 
15 12 7 1 
16 13 8 1 
17 13 153 1 
18 13 154 1 
19 14 10 2 
20 15 11 2 
21 16 20 1 
22 16 11 1 
23 16 151 1 
24 16 152 1 
25 17 12 2 
26 18 12 1 
27 19 13 1 
28 20 25 1 
29 21 18 1 
30 21 27 1 
31 21 149 1 
32 21 150 1 
33 22 18 1 
34 22 28 1 
35 22 147 1 
36 22 148 1 
37 23 19 2 
38 23 146 1 
39 24 30 2 
40 24 19 1 
41 24 145 1 
42 25 31 1 
43 26 20 1 
44 26 33 1 
45 26 143 1 
46 26 144 1 
47 27 35 1 
48 28 141 1 
49 28 142 1 
50 29 23 1 
51 29 140 1 
52 30 37 1 
53 30 139 1 
54 31 138 1 
55 32 25 2 
56 33 136 1 
57 33 137 1 
58 34 27 2 
59 36 28 1 
60 37 29 2 
61 38 45 1 
62 38 31 1 
63 38 134 1 
64 38 135 1 
65 39 46 1 
66 39 31 1 
67 39 47 1 
68 40 33 1 
69 41 35 1 
70 41 49 1 
71 41 132 1 
72 41 133 1 
73 42 51 1 
74 42 35 1 
75 42 131 1 
76 43 36 1 
77 43 128 1 
78 43 129 1 
79 43 130 1 
80 44 37 1 
81 45 46 1 
82 46 126 1 
83 46 127 1 
84 48 40 1 
85 48 123 1 
86 48 124 1 
87 48 125 1 
88 50 42 1 
89 50 59 2 
90 51 49 1 
91 52 44 1 
92 52 118 1 
93 52 119 1 
94 52 120 1 
95 53 45 1 
96 54 63 1 
97 54 45 1 
98 54 161 1 
99 55 47 2 
100 56 60 1 
101 56 47 1 
102 56 116 1 
103 56 117 1 
104 57 49 1 
105 58 66 1 
106 58 49 1 
107 58 160 1 
108 60 50 1 
109 61 53 1 
110 62 53 2 
111 63 61 1 
112 64 57 1 
113 65 57 2 
114 66 64 1 
115 67 60 1 
116 67 72 1 
117 67 114 1 
118 67 115 1 
119 68 61 1 
120 68 112 1 
121 68 113 1 
122 69 63 2 
123 70 64 1 
124 70 74 1 
125 71 66 2 
126 73 68 1 
127 73 76 2 
128 73 77 1 
129 74 78 1 
130 75 72 1 
131 77 82 2 
132 79 84 1 
133 79 74 2 
134 79 104 1 
135 80 75 1 
136 81 76 1 
137 82 85 1 
138 83 78 2 
139 84 86 2 
140 84 97 1 
141 85 81 2 
142 86 88 1 
143 86 83 1 
144 87 85 1 
145 89 87 1 
146 89 96 1 
147 90 88 1 
148 91 90 1 
149 92 90 1 
150 93 90 1 
151 94 89 1 
152 95 89 1 
153 98 83 1 
154 99 82 1 
155 100 81 1 
156 101 80 1 
157 102 80 1 
158 103 80 1 
159 105 78 1 
160 106 77 1 
161 107 76 1 
162 108 72 1 
163 109 72 1 
164 110 70 1 
165 111 70 1 
166 121 51 1 
167 122 51 1 
168 156 3 1 
169 157 3 1 
170 158 2 1 
171 159 2 1 
@<TRIPOS>SUBSTRUCTURE
1 NIL_1 1 RESIDUE 1 A NIL 1
