@<TRIPOS>MOLECULE
NIL
162 171 1 0 0
POLYMER
CHARGES


@<TRIPOS>ATOM
1 CQ 106.143 74.3424 -8.9211 C.3 1 NIL_1    0.000
2 C_1816 105.078 73.289 -9.248 C.3 1 NIL_1    0.000
3 C_1818 107.451 73.563 -8.728 C.3 1 NIL_1    0.000
4 C_1854 105.771 75.176 -7.715 C.2 1 NIL_1    0.000
5 NH 106.212 75.404 -9.914 N.am 1 NIL_1    0.000
6 N 105.650 71.950 -9.037 N.am 1 NIL_1    0.000
7 CP 107.061 72.074 -8.576 C.3 1 NIL_1    0.000
8 N 105.604 76.460 -8.114 N.am 1 NIL_1    0.000
9 O 105.667 74.778 -6.571 O.2 1 NIL_1    0.000
10 C_1856 105.882 76.613 -9.433 C.2 1 NIL_1    0.000
11 C_1841 104.868 70.835 -9.158 C.2 1 NIL_1    0.000
12 C_1838 108.083 71.185 -9.293 C.2 1 NIL_1    0.000
13 C_1868 105.239 77.547 -7.185 C.3 1 NIL_1    0.000
14 O 105.855 77.635 -10.088 O.2 1 NIL_1    0.000
15 O 103.747 70.922 -9.622 O.2 1 NIL_1    0.000
16 C_1840 105.352 69.469 -8.684 C.3 1 NIL_1    0.000
17 O 107.825 70.715 -10.385 O.2 1 NIL_1    0.000
18 N 109.304 70.958 -8.713 N.am 1 NIL_1    0.000
19 C_1869 104.522 78.761 -7.752 C.2 1 NIL_1    0.000
20 N 105.444 69.180 -7.231 N.am 1 NIL_1    0.000
21 C_1829 110.312 70.108 -9.405 C.3 1 NIL_1    0.000
22 C_1871 109.848 71.706 -7.552 C.3 1 NIL_1    0.000
23 C_2204 103.289 78.657 -8.258 C.2 1 NIL_1    0.000
24 C_2212 105.114 79.958 -7.752 C.2 1 NIL_1    0.000
25 C_1843 105.801 67.967 -6.694 C.2 1 NIL_1    0.000
26 C_1872 104.986 70.276 -6.332 C.3 1 NIL_1    0.000
27 C_1830 111.479 69.496 -8.631 C.2 1 NIL_1    0.000
28 C_1876 110.741 72.894 -7.961 C.3 1 NIL_1    0.000
29 C_2206 102.663 79.725 -8.760 C.2 1 NIL_1    0.000
30 C_2210 104.491 81.026 -8.248 C.2 1 NIL_1    0.000
31 AP 105.891 66.643 -7.481 C.3 1 NIL_1    0.000
32 O 106.036 67.891 -5.502 O.2 1 NIL_1    0.000
33 C_1879 103.452 70.304 -6.169 C.3 1 NIL_1    0.000
34 O 112.606 69.764 -8.998 O.2 1 NIL_1    0.000
35 N 111.291 68.676 -7.550 N.am 1 NIL_1    0.000
36 O 111.594 73.217 -6.844 O.3 1 NIL_1    0.000
37 C_2208 103.262 80.926 -8.762 C.2 1 NIL_1    0.000
38 C_1827 104.685 65.753 -7.111 C.3 1 NIL_1    0.000
39 N 105.993 66.596 -8.960 N.am 1 NIL_1    0.000
40 O 103.062 71.430 -5.345 O.3 1 NIL_1    0.000
41 C_1813 112.370 68.377 -6.596 C.3 1 NIL_1    0.000
42 BP 110.042 68.334 -6.831 C.3 1 NIL_1    0.000
43 C_1878 112.986 72.888 -7.030 C.3 1 NIL_1    0.000
44 O 102.691 82.074 -9.253 O.3 1 NIL_1    0.000
45 AQ 103.808 65.681 -8.369 C.3 1 NIL_1    0.000
46 C_1825 104.747 66.048 -9.527 C.3 1 NIL_1    0.000
47 C_1844 107.084 66.849 -9.736 C.2 1 NIL_1    0.000
48 C_1881 102.992 72.713 -6.009 C.3 1 NIL_1    0.000
49 BQ 111.844 68.879 -5.245 C.3 1 NIL_1    0.000
50 C_1833 109.720 66.834 -6.989 C.2 1 NIL_1    0.000
51 C_1815 110.308 68.736 -5.352 C.3 1 NIL_1    0.000
52 C_2271 101.513 81.998 -10.092 C.3 1 NIL_1    0.000
53 C_1846 102.585 66.572 -8.302 C.2 1 NIL_1    0.000
54 NH 103.144 64.397 -8.537 N.am 1 NIL_1    0.000
55 O 107.027 66.718 -10.943 O.2 1 NIL_1    0.000
56 C_1835 108.393 67.285 -9.093 C.3 1 NIL_1    0.000
57 C_1850 112.484 68.186 -4.062 C.2 1 NIL_1    0.000
58 NH 112.297 70.239 -4.990 N.am 1 NIL_1    0.000
59 O 110.140 66.031 -6.176 O.2 1 NIL_1    0.000
60 N 109.014 66.399 -8.080 N.am 1 NIL_1    0.000
61 N 101.486 65.793 -8.439 N.am 1 NIL_1    0.000
62 O 102.574 67.778 -8.153 O.2 1 NIL_1    0.000
63 C_1848 101.804 64.483 -8.549 C.2 1 NIL_1    0.000
64 N 113.249 69.095 -3.406 N.am 1 NIL_1    0.000
65 O 112.350 67.018 -3.752 O.2 1 NIL_1    0.000
66 C_1852 113.152 70.328 -3.959 C.2 1 NIL_1    0.000
67 C_1870 109.030 64.975 -8.502 C.3 1 NIL_1    0.000
68 C_1866 100.103 66.307 -8.465 C.3 1 NIL_1    0.000
69 O 101.036 63.546 -8.643 O.2 1 NIL_1    0.000
70 C_1864 114.082 68.799 -2.222 C.3 1 NIL_1    0.000
71 O 113.727 71.339 -3.607 O.2 1 NIL_1    0.000
72 C_1873 109.990 64.725 -9.689 C.3 1 NIL_1    0.000
73 C_1867 99.626 66.730 -9.846 C.2 1 NIL_1    0.000
74 C_1865 115.157 67.726 -2.334 C.2 1 NIL_1    0.000
75 O 110.240 63.309 -9.854 O.3 1 NIL_1    0.000
76 C_2172 99.086 67.938 -10.037 C.2 1 NIL_1    0.000
77 C_2180 99.724 65.907 -10.896 C.2 1 NIL_1    0.000
78 C_2196 115.691 67.222 -1.218 C.2 1 NIL_1    0.000
79 C_2188 115.595 67.268 -3.512 C.2 1 NIL_1    0.000
80 C_1875 109.211 62.534 -10.509 C.3 1 NIL_1    0.000
81 C_2174 98.671 68.318 -11.247 C.2 1 NIL_1    0.000
82 C_2178 99.313 66.284 -12.107 C.2 1 NIL_1    0.000
83 C_2194 116.624 66.269 -1.271 C.2 1 NIL_1    0.000
84 C_2190 116.523 66.311 -3.568 C.2 1 NIL_1    0.000
85 C_2176 98.786 67.503 -12.299 C.2 1 NIL_1    0.000
86 C_2192 117.046 65.796 -2.452 C.2 1 NIL_1    0.000
87 O 98.348 67.968 -13.515 O.3 1 NIL_1    0.000
88 O 117.988 64.805 -2.593 O.3 1 NIL_1    0.000
89 C_2273 98.696 67.246 -14.722 C.3 1 NIL_1    0.000
90 C_2269 118.668 64.289 -1.422 C.3 1 NIL_1    0.000
91 H_22691 119.201 65.103 -0.923 H 1 NIL_1    0.000
92 H_22692 119.384 63.527 -1.739 H 1 NIL_1    0.000
93 H_22693 117.941 63.839 -0.740 H 1 NIL_1    0.000
94 H_22731 99.782 67.144 -14.790 H 1 NIL_1    0.000
95 H_22732 98.332 67.809 -15.585 H 1 NIL_1    0.000
96 H_22733 98.224 66.261 -14.711 H 1 NIL_1    0.000
97 H_2190 116.852 65.947 -4.539 H 1 NIL_1    0.000
98 H_2194 117.021 65.891 -0.333 H 1 NIL_1    0.000
99 H_2178 99.421 65.579 -12.927 H 1 NIL_1    0.000
100 H_2174 98.239 69.309 -11.376 H 1 NIL_1    0.000
101 H_18751 108.304 62.532 -9.900 H 1 NIL_1    0.000
102 H_18752 109.573 61.509 -10.633 H 1 NIL_1    0.000
103 H_18753 109.002 62.966 -11.492 H 1 NIL_1    0.000
104 H_2188 115.199 67.663 -4.444 H 1 NIL_1    0.000
105 H_2196 115.364 67.587 -0.248 H 1 NIL_1    0.000
106 H_2180 100.147 64.914 -10.776 H 1 NIL_1    0.000
107 H_2172 98.982 68.627 -9.202 H 1 NIL_1    0.000
108 H_18731 109.579 65.129 -10.619 H 1 NIL_1    0.000
109 H_18732 110.951 65.204 -9.487 H 1 NIL_1    0.000
110 H_18641 113.400 68.524 -1.413 H 1 NIL_1    0.000
111 H_18642 114.576 69.723 -1.911 H 1 NIL_1    0.000
112 H_18661 100.047 67.159 -7.783 H 1 NIL_1    0.000
113 H_18662 99.433 65.537 -8.075 H 1 NIL_1    0.000
114 H_18701 108.021 64.653 -8.773 H 1 NIL_1    0.000
115 H_18702 109.349 64.347 -7.669 H 1 NIL_1    0.000
116 H_18351 109.108 67.397 -9.908 H 1 NIL_1    0.000
117 H_18352 108.175 68.261 -8.669 H 1 NIL_1    0.000
118 H_22711 101.716 81.358 -10.955 H 1 NIL_1    0.000
119 H_22712 101.267 83.005 -10.440 H 1 NIL_1    0.000
120 H_22713 100.672 81.604 -9.516 H 1 NIL_1    0.000
121 H_18151 109.827 69.693 -5.131 H 1 NIL_1    0.000
122 H_18152 109.905 68.008 -4.643 H 1 NIL_1    0.000
123 H_18811 102.670 73.473 -5.291 H 1 NIL_1    0.000
124 H_18812 102.272 72.659 -6.828 H 1 NIL_1    0.000
125 H_18813 103.972 72.979 -6.405 H 1 NIL_1    0.000
126 H_18251 104.990 65.154 -10.107 H 1 NIL_1    0.000
127 H_18252 104.285 66.786 -10.188 H 1 NIL_1    0.000
128 H_18781 113.417 73.574 -7.764 H 1 NIL_1    0.000
129 H_18782 113.074 71.858 -7.387 H 1 NIL_1    0.000
130 H_18783 113.508 72.992 -6.077 H 1 NIL_1    0.000
131 HP 109.194 68.922 -7.169 H 1 NIL_1    0.000
132 H_18131 113.306 68.881 -6.855 H 1 NIL_1    0.000
133 H_18132 112.542 67.298 -6.564 H 1 NIL_1    0.000
134 H_18271 105.060 64.753 -6.879 H 1 NIL_1    0.000
135 H_18272 104.126 66.111 -6.243 H 1 NIL_1    0.000
136 H_18791 102.956 70.381 -7.141 H 1 NIL_1    0.000
137 H_18792 103.128 69.385 -5.674 H 1 NIL_1    0.000
138 HP 106.769 66.145 -7.069 H 1 NIL_1    0.000
139 H_2210 104.995 81.990 -8.236 H 1 NIL_1    0.000
140 H_2206 101.661 79.594 -9.160 H 1 NIL_1    0.000
141 H_18761 111.352 72.639 -8.830 H 1 NIL_1    0.000
142 H_18762 110.141 73.772 -8.200 H 1 NIL_1    0.000
143 H_18721 105.318 71.244 -6.691 H 1 NIL_1    0.000
144 H_18722 105.433 70.164 -5.342 H 1 NIL_1    0.000
145 H_2212 106.117 80.069 -7.344 H 1 NIL_1    0.000
146 H_2204 102.788 77.692 -8.267 H 1 NIL_1    0.000
147 H_18711 110.443 71.038 -6.933 H 1 NIL_1    0.000
148 H_18712 109.046 72.069 -6.909 H 1 NIL_1    0.000
149 H_18291 110.755 70.715 -10.198 H 1 NIL_1    0.000
150 H_18292 109.808 69.280 -9.895 H 1 NIL_1    0.000
151 H_18401 104.645 68.765 -9.120 H 1 NIL_1    0.000
152 H_18402 106.321 69.293 -9.138 H 1 NIL_1    0.000
153 H_18681 106.162 77.872 -6.698 H 1 NIL_1    0.000
154 H_18682 104.600 77.122 -6.406 H 1 NIL_1    0.000
155 HP 107.090 71.810 -7.519 H 1 NIL_1    0.000
156 H_18181 107.994 73.923 -7.851 H 1 NIL_1    0.000
157 H_18182 108.089 73.693 -9.608 H 1 NIL_1    0.000
158 H_18161 104.206 73.417 -8.601 H 1 NIL_1    0.000
159 H_18162 104.757 73.381 -10.289 H 1 NIL_1    0.000
160 HH 112.071 71.010 -5.601 H 1 NIL_1    0.000
161 HH 103.651 63.528 -8.614 H 1 NIL_1    0.000
162 HH 106.454 75.232 -10.879 H 1 NIL_1    0.000
@<TRIPOS>BOND
1 1 2 1 
2 3 1 1 
3 4 1 1 
4 5 10 1 
5 5 1 1 
6 5 162 1 
7 6 2 1 
8 7 3 1 
9 7 6 1 
10 7 155 1 
11 8 4 1 
12 9 4 2 
13 10 8 1 
14 11 6 1 
15 12 7 1 
16 13 8 1 
17 13 153 1 
18 13 154 1 
19 14 10 2 
20 15 11 2 
21 16 20 1 
22 16 11 1 
23 16 151 1 
24 16 152 1 
25 17 12 2 
26 18 12 1 
27 19 13 1 
28 20 25 1 
29 21 18 1 
30 21 27 1 
31 21 149 1 
32 21 150 1 
33 22 18 1 
34 22 28 1 
35 22 147 1 
36 22 148 1 
37 23 19 2 
38 23 146 1 
39 24 30 2 
40 24 19 1 
41 24 145 1 
42 25 31 1 
43 26 20 1 
44 26 33 1 
45 26 143 1 
46 26 144 1 
47 27 35 1 
48 28 141 1 
49 28 142 1 
50 29 23 1 
51 29 140 1 
52 30 37 1 
53 30 139 1 
54 31 138 1 
55 32 25 2 
56 33 136 1 
57 33 137 1 
58 34 27 2 
59 36 28 1 
60 37 29 2 
61 38 45 1 
62 38 31 1 
63 38 134 1 
64 38 135 1 
65 39 46 1 
66 39 31 1 
67 39 47 1 
68 40 33 1 
69 41 35 1 
70 41 49 1 
71 41 132 1 
72 41 133 1 
73 42 51 1 
74 42 35 1 
75 42 131 1 
76 43 36 1 
77 43 128 1 
78 43 129 1 
79 43 130 1 
80 44 37 1 
81 45 46 1 
82 46 126 1 
83 46 127 1 
84 48 40 1 
85 48 123 1 
86 48 124 1 
87 48 125 1 
88 50 42 1 
89 50 59 2 
90 51 49 1 
91 52 44 1 
92 52 118 1 
93 52 119 1 
94 52 120 1 
95 53 45 1 
96 54 63 1 
97 54 45 1 
98 54 161 1 
99 55 47 2 
100 56 60 1 
101 56 47 1 
102 56 116 1 
103 56 117 1 
104 57 49 1 
105 58 66 1 
106 58 49 1 
107 58 160 1 
108 60 50 1 
109 61 53 1 
110 62 53 2 
111 63 61 1 
112 64 57 1 
113 65 57 2 
114 66 64 1 
115 67 60 1 
116 67 72 1 
117 67 114 1 
118 67 115 1 
119 68 61 1 
120 68 112 1 
121 68 113 1 
122 69 63 2 
123 70 64 1 
124 70 74 1 
125 71 66 2 
126 73 68 1 
127 73 76 2 
128 73 77 1 
129 74 78 1 
130 75 72 1 
131 77 82 2 
132 79 84 1 
133 79 74 2 
134 79 104 1 
135 80 75 1 
136 81 76 1 
137 82 85 1 
138 83 78 2 
139 84 86 2 
140 84 97 1 
141 85 81 2 
142 86 88 1 
143 86 83 1 
144 87 85 1 
145 89 87 1 
146 89 96 1 
147 90 88 1 
148 91 90 1 
149 92 90 1 
150 93 90 1 
151 94 89 1 
152 95 89 1 
153 98 83 1 
154 99 82 1 
155 100 81 1 
156 101 80 1 
157 102 80 1 
158 103 80 1 
159 105 78 1 
160 106 77 1 
161 107 76 1 
162 108 72 1 
163 109 72 1 
164 110 70 1 
165 111 70 1 
166 121 51 1 
167 122 51 1 
168 156 3 1 
169 157 3 1 
170 158 2 1 
171 159 2 1 
@<TRIPOS>SUBSTRUCTURE
1 NIL_1 1 RESIDUE 1 A NIL 1
