@<TRIPOS>MOLECULE
NIL
162 171 1 0 0
POLYMER
CHARGES


@<TRIPOS>ATOM
1 CQ 101.584 71.8828 -12.5787 C.3 1 NIL_1    0.000
2 C_1816 100.833 70.794 -13.372 C.3 1 NIL_1    0.000
3 C_1818 102.528 71.083 -11.682 C.3 1 NIL_1    0.000
4 C_1854 100.701 72.763 -11.723 C.2 1 NIL_1    0.000
5 NH 102.258 72.910 -13.358 N.am 1 NIL_1    0.000
6 N 100.843 69.563 -12.552 N.am 1 NIL_1    0.000
7 CP 101.741 69.795 -11.388 C.3 1 NIL_1    0.000
8 N 101.064 74.049 -11.941 N.am 1 NIL_1    0.000
9 O 99.843 72.390 -10.944 O.2 1 NIL_1    0.000
10 C_1856 101.992 74.155 -12.922 C.2 1 NIL_1    0.000
11 C_1841 100.080 68.465 -12.831 C.2 1 NIL_1    0.000
12 C_1838 102.722 68.738 -10.879 C.2 1 NIL_1    0.000
13 C_1868 100.664 75.170 -11.071 C.3 1 NIL_1    0.000
14 O 102.512 75.173 -13.332 O.2 1 NIL_1    0.000
15 O 99.414 68.416 -13.847 O.2 1 NIL_1    0.000
16 C_1840 100.121 67.302 -11.848 C.3 1 NIL_1    0.000
17 O 102.918 68.697 -9.678 O.2 1 NIL_1    0.000
18 N 103.369 67.862 -11.708 N.am 1 NIL_1    0.000
19 C_1869 99.640 76.134 -11.632 C.2 1 NIL_1    0.000
20 N 99.102 66.231 -11.980 N.am 1 NIL_1    0.000
21 C_1829 104.211 66.770 -11.169 C.3 1 NIL_1    0.000
22 C_1871 103.502 67.969 -13.178 C.3 1 NIL_1    0.000
23 C_2204 98.334 75.905 -11.480 C.2 1 NIL_1    0.000
24 C_2212 100.027 77.255 -12.246 C.2 1 NIL_1    0.000
25 C_1843 99.468 64.914 -11.958 C.2 1 NIL_1    0.000
26 C_1872 97.716 66.712 -11.793 C.3 1 NIL_1    0.000
27 C_1830 103.534 65.835 -10.173 C.2 1 NIL_1    0.000
28 C_1876 104.910 68.428 -13.617 C.3 1 NIL_1    0.000
29 C_2206 97.429 76.779 -11.925 C.2 1 NIL_1    0.000
30 C_2210 99.126 78.131 -12.693 C.2 1 NIL_1    0.000
31 AP 98.450 63.853 -11.528 C.3 1 NIL_1    0.000
32 O 100.602 64.574 -12.247 O.2 1 NIL_1    0.000
33 C_1879 97.397 67.065 -10.324 C.3 1 NIL_1    0.000
34 O 102.342 65.881 -9.937 O.2 1 NIL_1    0.000
35 N 104.332 64.926 -9.554 N.am 1 NIL_1    0.000
36 O 104.918 68.692 -15.038 O.3 1 NIL_1    0.000
37 C_2208 97.819 77.908 -12.536 C.2 1 NIL_1    0.000
38 C_1827 97.858 63.109 -12.742 C.3 1 NIL_1    0.000
39 N 99.054 62.826 -10.653 N.am 1 NIL_1    0.000
40 O 95.968 67.201 -10.136 O.3 1 NIL_1    0.000
41 C_1813 105.766 64.740 -9.801 C.3 1 NIL_1    0.000
42 BP 103.851 63.946 -8.564 C.3 1 NIL_1    0.000
43 C_1878 104.409 69.983 -15.444 C.3 1 NIL_1    0.000
44 O 96.958 78.870 -13.003 O.3 1 NIL_1    0.000
45 AQ 97.665 61.675 -12.227 C.3 1 NIL_1    0.000
46 C_1825 98.795 61.494 -11.207 C.3 1 NIL_1    0.000
47 C_1844 99.811 63.105 -9.561 C.2 1 NIL_1    0.000
48 C_1881 95.334 68.319 -10.797 C.3 1 NIL_1    0.000
49 BQ 106.256 63.594 -8.902 C.3 1 NIL_1    0.000
50 C_1833 102.826 62.993 -9.172 C.2 1 NIL_1    0.000
51 C_1815 105.075 63.209 -7.994 C.3 1 NIL_1    0.000
52 C_2271 95.536 78.603 -13.040 C.3 1 NIL_1    0.000
53 C_1846 97.672 60.611 -13.296 C.2 1 NIL_1    0.000
54 NH 96.344 61.437 -11.660 N.am 1 NIL_1    0.000
55 O 99.864 64.236 -9.117 O.2 1 NIL_1    0.000
56 C_1835 100.603 61.965 -8.931 C.3 1 NIL_1    0.000
57 C_1850 106.760 62.411 -9.695 C.2 1 NIL_1    0.000
58 NH 107.471 63.923 -8.174 N.am 1 NIL_1    0.000
59 O 102.829 62.754 -10.366 O.2 1 NIL_1    0.000
60 N 101.870 62.458 -8.359 N.am 1 NIL_1    0.000
61 N 96.504 59.932 -13.217 N.am 1 NIL_1    0.000
62 O 98.571 60.387 -14.084 O.2 1 NIL_1    0.000
63 C_1848 95.693 60.417 -12.246 C.2 1 NIL_1    0.000
64 N 108.054 62.200 -9.356 N.am 1 NIL_1    0.000
65 O 106.115 61.749 -10.487 O.2 1 NIL_1    0.000
66 C_1852 108.498 63.105 -8.453 C.2 1 NIL_1    0.000
67 C_1870 101.877 62.486 -6.881 C.3 1 NIL_1    0.000
68 C_1866 96.152 58.803 -14.092 C.3 1 NIL_1    0.000
69 O 94.585 60.015 -11.949 O.2 1 NIL_1    0.000
70 C_1864 108.863 61.080 -9.860 C.3 1 NIL_1    0.000
71 O 109.609 63.176 -7.967 O.2 1 NIL_1    0.000
72 C_1873 101.049 63.647 -6.302 C.3 1 NIL_1    0.000
73 C_1867 95.550 59.290 -15.395 C.2 1 NIL_1    0.000
74 C_1865 108.673 59.850 -8.990 C.2 1 NIL_1    0.000
75 O 101.229 63.678 -4.872 O.3 1 NIL_1    0.000
76 C_2172 96.306 59.401 -16.491 C.2 1 NIL_1    0.000
77 C_2180 94.259 59.622 -15.472 C.2 1 NIL_1    0.000
78 C_2196 107.954 58.814 -9.429 C.2 1 NIL_1    0.000
79 C_2188 109.214 59.782 -7.769 C.2 1 NIL_1    0.000
80 C_1875 100.557 64.766 -4.202 C.3 1 NIL_1    0.000
81 C_2174 95.781 59.837 -17.638 C.2 1 NIL_1    0.000
82 C_2178 93.731 60.061 -16.615 C.2 1 NIL_1    0.000
83 C_2194 107.776 57.737 -8.663 C.2 1 NIL_1    0.000
84 C_2190 109.032 58.709 -6.999 C.2 1 NIL_1    0.000
85 C_2176 94.492 60.176 -17.715 C.2 1 NIL_1    0.000
86 C_2192 108.305 57.673 -7.438 C.2 1 NIL_1    0.000
87 O 94.030 60.621 -18.930 O.3 1 NIL_1    0.000
88 O 108.076 56.535 -6.705 O.3 1 NIL_1    0.000
89 C_2273 92.684 61.146 -19.038 C.3 1 NIL_1    0.000
90 C_2269 108.214 56.586 -5.263 C.3 1 NIL_1    0.000
91 H_22691 109.260 56.759 -4.995 H 1 NIL_1    0.000
92 H_22692 107.893 55.625 -4.850 H 1 NIL_1    0.000
93 H_22693 107.581 57.383 -4.862 H 1 NIL_1    0.000
94 H_22731 92.527 61.485 -20.065 H 1 NIL_1    0.000
95 H_22732 92.565 61.991 -18.355 H 1 NIL_1    0.000
96 H_22733 91.962 60.360 -18.800 H 1 NIL_1    0.000
97 H_2190 109.493 58.701 -6.014 H 1 NIL_1    0.000
98 H_2194 107.188 56.904 -9.042 H 1 NIL_1    0.000
99 H_2178 92.676 60.319 -16.626 H 1 NIL_1    0.000
100 H_2174 96.416 59.918 -18.517 H 1 NIL_1    0.000
101 H_18751 100.962 65.716 -4.563 H 1 NIL_1    0.000
102 H_18752 100.730 64.681 -3.126 H 1 NIL_1    0.000
103 H_18753 99.485 64.716 -4.409 H 1 NIL_1    0.000
104 H_2188 109.808 60.608 -7.387 H 1 NIL_1    0.000
105 H_2196 107.505 58.844 -10.419 H 1 NIL_1    0.000
106 H_2180 93.624 59.538 -14.592 H 1 NIL_1    0.000
107 H_2172 97.361 59.138 -16.455 H 1 NIL_1    0.000
108 H_18731 101.380 64.597 -6.726 H 1 NIL_1    0.000
109 H_18732 99.989 63.498 -6.523 H 1 NIL_1    0.000
110 H_18641 109.916 61.371 -9.873 H 1 NIL_1    0.000
111 H_18642 108.565 60.864 -10.891 H 1 NIL_1    0.000
112 H_18661 95.447 58.147 -13.574 H 1 NIL_1    0.000
113 H_18662 97.054 58.219 -14.294 H 1 NIL_1    0.000
114 H_18701 102.904 62.558 -6.519 H 1 NIL_1    0.000
115 H_18702 101.471 61.539 -6.512 H 1 NIL_1    0.000
116 H_18351 99.972 61.502 -8.168 H 1 NIL_1    0.000
117 H_18352 100.836 61.219 -9.694 H 1 NIL_1    0.000
118 H_22711 95.035 79.475 -13.470 H 1 NIL_1    0.000
119 H_22712 95.163 78.434 -12.026 H 1 NIL_1    0.000
120 H_22713 95.347 77.728 -13.667 H 1 NIL_1    0.000
121 H_18151 105.257 63.563 -6.976 H 1 NIL_1    0.000
122 H_18152 104.922 62.129 -7.949 H 1 NIL_1    0.000
123 H_18811 95.824 69.249 -10.497 H 1 NIL_1    0.000
124 H_18812 94.283 68.344 -10.500 H 1 NIL_1    0.000
125 H_18813 95.399 68.196 -11.881 H 1 NIL_1    0.000
126 H_18251 98.514 60.788 -10.422 H 1 NIL_1    0.000
127 H_18252 99.703 61.151 -11.711 H 1 NIL_1    0.000
128 H_18781 103.383 70.110 -15.093 H 1 NIL_1    0.000
129 H_18782 104.427 70.044 -16.536 H 1 NIL_1    0.000
130 H_18783 105.043 70.766 -15.023 H 1 NIL_1    0.000
131 HP 103.361 64.501 -7.760 H 1 NIL_1    0.000
132 H_18131 106.294 65.666 -9.556 H 1 NIL_1    0.000
133 H_18132 105.928 64.500 -10.856 H 1 NIL_1    0.000
134 H_18271 96.926 63.561 -13.088 H 1 NIL_1    0.000
135 H_18272 98.574 63.110 -13.568 H 1 NIL_1    0.000
136 H_18791 97.740 66.260 -9.670 H 1 NIL_1    0.000
137 H_18792 97.893 67.997 -10.037 H 1 NIL_1    0.000
138 HP 97.643 64.314 -10.953 H 1 NIL_1    0.000
139 H_2210 99.464 79.042 -13.181 H 1 NIL_1    0.000
140 H_2206 96.378 76.554 -11.765 H 1 NIL_1    0.000
141 H_18761 105.207 69.335 -13.083 H 1 NIL_1    0.000
142 H_18762 105.634 67.637 -13.411 H 1 NIL_1    0.000
143 H_18721 97.018 65.948 -12.142 H 1 NIL_1    0.000
144 H_18722 97.552 67.594 -12.414 H 1 NIL_1    0.000
145 H_2212 101.086 77.469 -12.375 H 1 NIL_1    0.000
146 H_2204 97.996 75.002 -10.974 H 1 NIL_1    0.000
147 H_18711 102.789 68.675 -13.583 H 1 NIL_1    0.000
148 H_18712 103.285 66.994 -13.623 H 1 NIL_1    0.000
149 H_18291 105.067 67.223 -10.663 H 1 NIL_1    0.000
150 H_18292 104.575 66.136 -11.982 H 1 NIL_1    0.000
151 H_18401 101.106 66.859 -11.967 H 1 NIL_1    0.000
152 H_18402 100.054 67.718 -10.840 H 1 NIL_1    0.000
153 H_18681 101.570 75.729 -10.817 H 1 NIL_1    0.000
154 H_18682 100.283 74.762 -10.130 H 1 NIL_1    0.000
155 HP 101.076 69.998 -10.544 H 1 NIL_1    0.000
156 H_18181 102.801 71.612 -10.765 H 1 NIL_1    0.000
157 H_18182 103.445 70.848 -12.231 H 1 NIL_1    0.000
158 H_18161 99.812 71.109 -13.612 H 1 NIL_1    0.000
159 H_18162 101.370 70.583 -14.302 H 1 NIL_1    0.000
160 HH 107.519 64.683 -7.513 H 1 NIL_1    0.000
161 HH 95.965 61.991 -10.907 H 1 NIL_1    0.000
162 HH 102.944 72.694 -14.066 H 1 NIL_1    0.000
@<TRIPOS>BOND
1 1 2 1 
2 3 1 1 
3 4 1 1 
4 5 10 1 
5 5 1 1 
6 5 162 1 
7 6 2 1 
8 7 3 1 
9 7 6 1 
10 7 155 1 
11 8 4 1 
12 9 4 2 
13 10 8 1 
14 11 6 1 
15 12 7 1 
16 13 8 1 
17 13 153 1 
18 13 154 1 
19 14 10 2 
20 15 11 2 
21 16 20 1 
22 16 11 1 
23 16 151 1 
24 16 152 1 
25 17 12 2 
26 18 12 1 
27 19 13 1 
28 20 25 1 
29 21 18 1 
30 21 27 1 
31 21 149 1 
32 21 150 1 
33 22 18 1 
34 22 28 1 
35 22 147 1 
36 22 148 1 
37 23 19 2 
38 23 146 1 
39 24 30 2 
40 24 19 1 
41 24 145 1 
42 25 31 1 
43 26 20 1 
44 26 33 1 
45 26 143 1 
46 26 144 1 
47 27 35 1 
48 28 141 1 
49 28 142 1 
50 29 23 1 
51 29 140 1 
52 30 37 1 
53 30 139 1 
54 31 138 1 
55 32 25 2 
56 33 136 1 
57 33 137 1 
58 34 27 2 
59 36 28 1 
60 37 29 2 
61 38 45 1 
62 38 31 1 
63 38 134 1 
64 38 135 1 
65 39 46 1 
66 39 31 1 
67 39 47 1 
68 40 33 1 
69 41 35 1 
70 41 49 1 
71 41 132 1 
72 41 133 1 
73 42 51 1 
74 42 35 1 
75 42 131 1 
76 43 36 1 
77 43 128 1 
78 43 129 1 
79 43 130 1 
80 44 37 1 
81 45 46 1 
82 46 126 1 
83 46 127 1 
84 48 40 1 
85 48 123 1 
86 48 124 1 
87 48 125 1 
88 50 42 1 
89 50 59 2 
90 51 49 1 
91 52 44 1 
92 52 118 1 
93 52 119 1 
94 52 120 1 
95 53 45 1 
96 54 63 1 
97 54 45 1 
98 54 161 1 
99 55 47 2 
100 56 60 1 
101 56 47 1 
102 56 116 1 
103 56 117 1 
104 57 49 1 
105 58 66 1 
106 58 49 1 
107 58 160 1 
108 60 50 1 
109 61 53 1 
110 62 53 2 
111 63 61 1 
112 64 57 1 
113 65 57 2 
114 66 64 1 
115 67 60 1 
116 67 72 1 
117 67 114 1 
118 67 115 1 
119 68 61 1 
120 68 112 1 
121 68 113 1 
122 69 63 2 
123 70 64 1 
124 70 74 1 
125 71 66 2 
126 73 68 1 
127 73 76 2 
128 73 77 1 
129 74 78 1 
130 75 72 1 
131 77 82 2 
132 79 84 1 
133 79 74 2 
134 79 104 1 
135 80 75 1 
136 81 76 1 
137 82 85 1 
138 83 78 2 
139 84 86 2 
140 84 97 1 
141 85 81 2 
142 86 88 1 
143 86 83 1 
144 87 85 1 
145 89 87 1 
146 89 96 1 
147 90 88 1 
148 91 90 1 
149 92 90 1 
150 93 90 1 
151 94 89 1 
152 95 89 1 
153 98 83 1 
154 99 82 1 
155 100 81 1 
156 101 80 1 
157 102 80 1 
158 103 80 1 
159 105 78 1 
160 106 77 1 
161 107 76 1 
162 108 72 1 
163 109 72 1 
164 110 70 1 
165 111 70 1 
166 121 51 1 
167 122 51 1 
168 156 3 1 
169 157 3 1 
170 158 2 1 
171 159 2 1 
@<TRIPOS>SUBSTRUCTURE
1 NIL_1 1 RESIDUE 1 A NIL 1
