@<TRIPOS>MOLECULE
NIL
162 171 1 0 0
POLYMER
CHARGES


@<TRIPOS>ATOM
1 CQ 85.5901 52.3432 -34.8334 C.3 1 NIL_1    0.000
2 C_1816 84.446 51.329 -34.996 C.3 1 NIL_1    0.000
3 C_1818 86.176 52.121 -33.429 C.3 1 NIL_1    0.000
4 C_1854 85.157 53.778 -35.039 C.2 1 NIL_1    0.000
5 NH 86.593 52.254 -35.885 N.am 1 NIL_1    0.000
6 N 84.403 50.482 -33.799 N.am 1 NIL_1    0.000
7 CP 85.447 50.899 -32.838 C.3 1 NIL_1    0.000
8 N 85.930 54.318 -36.010 N.am 1 NIL_1    0.000
9 O 84.273 54.356 -34.434 O.2 1 NIL_1    0.000
10 C_1856 86.789 53.414 -36.534 C.2 1 NIL_1    0.000
11 C_1841 83.483 49.493 -33.631 C.2 1 NIL_1    0.000
12 C_1838 86.425 49.775 -32.491 C.2 1 NIL_1    0.000
13 C_1868 85.876 55.731 -36.415 C.3 1 NIL_1    0.000
14 O 87.594 53.600 -37.425 O.2 1 NIL_1    0.000
15 O 82.766 49.144 -34.549 O.2 1 NIL_1    0.000
16 C_1840 83.332 48.843 -32.261 C.3 1 NIL_1    0.000
17 O 86.519 48.805 -33.221 O.2 1 NIL_1    0.000
18 N 87.166 49.872 -31.343 N.am 1 NIL_1    0.000
19 C_1869 84.749 56.042 -37.378 C.2 1 NIL_1    0.000
20 N 82.068 49.203 -31.577 N.am 1 NIL_1    0.000
21 C_1829 88.024 48.751 -30.888 C.3 1 NIL_1    0.000
22 C_1871 87.330 51.109 -30.540 C.3 1 NIL_1    0.000
23 C_2204 84.720 55.491 -38.595 C.2 1 NIL_1    0.000
24 C_2212 83.775 56.889 -37.035 C.2 1 NIL_1    0.000
25 C_1843 81.273 48.341 -30.873 C.2 1 NIL_1    0.000
26 C_1872 81.830 50.669 -31.534 C.3 1 NIL_1    0.000
27 C_1830 87.576 48.052 -29.602 C.2 1 NIL_1    0.000
28 C_1876 88.634 51.867 -30.848 C.3 1 NIL_1    0.000
29 C_2206 83.740 55.780 -39.452 C.2 1 NIL_1    0.000
30 C_2210 82.795 57.182 -37.891 C.2 1 NIL_1    0.000
31 AP 81.555 46.839 -30.827 C.3 1 NIL_1    0.000
32 O 80.302 48.754 -30.266 O.2 1 NIL_1    0.000
33 C_1879 80.888 51.218 -32.631 C.3 1 NIL_1    0.000
34 O 86.973 48.642 -28.728 O.2 1 NIL_1    0.000
35 N 87.921 46.742 -29.456 N.am 1 NIL_1    0.000
36 O 88.525 53.194 -30.290 O.3 1 NIL_1    0.000
37 C_2208 82.766 56.636 -39.109 C.2 1 NIL_1    0.000
38 C_1827 81.153 46.163 -32.151 C.3 1 NIL_1    0.000
39 N 82.900 46.330 -30.455 N.am 1 NIL_1    0.000
40 O 79.596 50.567 -32.572 O.3 1 NIL_1    0.000
41 C_1813 88.521 45.894 -30.500 C.3 1 NIL_1    0.000
42 BP 87.830 45.943 -28.216 C.3 1 NIL_1    0.000
43 C_1878 89.676 54.039 -30.491 C.3 1 NIL_1    0.000
44 O 81.732 56.997 -39.938 O.3 1 NIL_1    0.000
45 AQ 81.912 44.833 -32.101 C.3 1 NIL_1    0.000
46 C_1825 83.166 45.119 -31.253 C.3 1 NIL_1    0.000
47 C_1844 83.698 46.808 -29.458 C.2 1 NIL_1    0.000
48 C_1881 79.342 49.556 -33.574 C.3 1 NIL_1    0.000
49 BQ 88.853 44.531 -29.870 C.3 1 NIL_1    0.000
50 C_1833 86.681 46.167 -27.232 C.2 1 NIL_1    0.000
51 C_1815 87.962 44.463 -28.623 C.3 1 NIL_1    0.000
52 C_2271 81.746 56.569 -41.321 C.3 1 NIL_1    0.000
53 C_1846 82.223 44.268 -33.465 C.2 1 NIL_1    0.000
54 NH 81.114 43.740 -31.566 N.am 1 NIL_1    0.000
55 O 83.505 47.906 -28.970 O.2 1 NIL_1    0.000
56 C_1835 84.840 45.901 -28.983 C.3 1 NIL_1    0.000
57 C_1850 88.674 43.391 -30.842 C.2 1 NIL_1    0.000
58 NH 90.271 44.376 -29.584 N.am 1 NIL_1    0.000
59 O 86.974 46.334 -26.062 O.2 1 NIL_1    0.000
60 N 85.366 46.180 -27.620 N.am 1 NIL_1    0.000
61 N 81.647 43.044 -33.555 N.am 1 NIL_1    0.000
62 O 82.882 44.812 -34.330 O.2 1 NIL_1    0.000
63 C_1848 80.993 42.709 -32.418 C.2 1 NIL_1    0.000
64 N 89.879 42.802 -31.035 N.am 1 NIL_1    0.000
65 O 87.633 43.074 -31.388 O.2 1 NIL_1    0.000
66 C_1852 90.851 43.393 -30.294 C.2 1 NIL_1    0.000
67 C_1870 84.306 46.143 -26.580 C.3 1 NIL_1    0.000
68 C_1866 81.759 42.165 -34.733 C.3 1 NIL_1    0.000
69 O 80.407 41.668 -32.189 O.2 1 NIL_1    0.000
70 C_1864 90.116 41.745 -32.036 C.3 1 NIL_1    0.000
71 O 92.033 43.112 -30.270 O.2 1 NIL_1    0.000
72 C_1873 84.078 44.716 -26.036 C.3 1 NIL_1    0.000
73 C_1867 80.450 41.593 -35.246 C.2 1 NIL_1    0.000
74 C_1865 91.087 40.645 -31.652 C.2 1 NIL_1    0.000
75 O 83.218 44.756 -24.871 O.3 1 NIL_1    0.000
76 C_2172 80.315 40.275 -35.426 C.2 1 NIL_1    0.000
77 C_2180 79.419 42.393 -35.537 C.2 1 NIL_1    0.000
78 C_2196 90.799 39.794 -30.664 C.2 1 NIL_1    0.000
79 C_2188 92.244 40.502 -32.305 C.2 1 NIL_1    0.000
80 C_1875 81.807 44.957 -25.107 C.3 1 NIL_1    0.000
81 C_2174 79.171 39.766 -35.882 C.2 1 NIL_1    0.000
82 C_2178 78.274 41.885 -35.997 C.2 1 NIL_1    0.000
83 C_2194 91.649 38.819 -30.341 C.2 1 NIL_1    0.000
84 C_2190 93.097 39.529 -31.983 C.2 1 NIL_1    0.000
85 C_2176 78.142 40.568 -36.168 C.2 1 NIL_1    0.000
86 C_2192 92.804 38.669 -30.996 C.2 1 NIL_1    0.000
87 O 76.976 40.055 -36.653 O.3 1 NIL_1    0.000
88 O 93.623 37.635 -30.614 O.3 1 NIL_1    0.000
89 C_2273 76.134 39.431 -35.656 C.3 1 NIL_1    0.000
90 C_2269 94.697 37.214 -31.491 C.3 1 NIL_1    0.000
91 H_22691 94.291 36.975 -32.478 H 1 NIL_1    0.000
92 H_22692 95.167 36.321 -31.068 H 1 NIL_1    0.000
93 H_22693 95.441 38.011 -31.571 H 1 NIL_1    0.000
94 H_22731 75.245 39.030 -36.149 H 1 NIL_1    0.000
95 H_22732 75.838 40.182 -34.918 H 1 NIL_1    0.000
96 H_22733 76.675 38.616 -35.166 H 1 NIL_1    0.000
97 H_2190 94.025 39.456 -32.543 H 1 NIL_1    0.000
98 H_2194 91.393 38.135 -29.536 H 1 NIL_1    0.000
99 H_2178 77.444 42.549 -36.232 H 1 NIL_1    0.000
100 H_2174 79.081 38.692 -36.029 H 1 NIL_1    0.000
101 H_18751 81.645 45.908 -25.620 H 1 NIL_1    0.000
102 H_18752 81.294 44.971 -24.143 H 1 NIL_1    0.000
103 H_18753 81.417 44.134 -25.713 H 1 NIL_1    0.000
104 H_2188 92.497 41.178 -33.117 H 1 NIL_1    0.000
105 H_2196 89.864 39.891 -30.116 H 1 NIL_1    0.000
106 H_2180 79.518 43.470 -35.405 H 1 NIL_1    0.000
107 H_2172 81.142 39.605 -35.205 H 1 NIL_1    0.000
108 H_18731 83.635 44.072 -26.802 H 1 NIL_1    0.000
109 H_18732 85.036 44.289 -25.726 H 1 NIL_1    0.000
110 H_18641 90.466 42.239 -32.946 H 1 NIL_1    0.000
111 H_18642 89.161 41.273 -32.280 H 1 NIL_1    0.000
112 H_18661 82.440 41.349 -34.470 H 1 NIL_1    0.000
113 H_18662 82.221 42.720 -35.553 H 1 NIL_1    0.000
114 H_18701 83.358 46.512 -26.974 H 1 NIL_1    0.000
115 H_18702 84.588 46.807 -25.758 H 1 NIL_1    0.000
116 H_18351 84.468 44.875 -28.965 H 1 NIL_1    0.000
117 H_18352 85.616 45.961 -29.744 H 1 NIL_1    0.000
118 H_22711 82.670 56.906 -41.799 H 1 NIL_1    0.000
119 H_22712 80.888 57.010 -41.834 H 1 NIL_1    0.000
120 H_22713 81.673 55.479 -41.363 H 1 NIL_1    0.000
121 H_18151 88.397 43.854 -27.827 H 1 NIL_1    0.000
122 H_18152 86.983 44.054 -28.882 H 1 NIL_1    0.000
123 H_18811 78.392 49.069 -33.344 H 1 NIL_1    0.000
124 H_18812 80.142 48.813 -33.566 H 1 NIL_1    0.000
125 H_18813 79.279 50.032 -34.557 H 1 NIL_1    0.000
126 H_18251 83.376 44.259 -30.612 H 1 NIL_1    0.000
127 H_18252 84.028 45.316 -31.897 H 1 NIL_1    0.000
128 H_18781 89.475 55.018 -30.049 H 1 NIL_1    0.000
129 H_18782 89.861 54.152 -31.562 H 1 NIL_1    0.000
130 H_18783 90.546 53.590 -30.006 H 1 NIL_1    0.000
131 HP 88.734 46.192 -27.650 H 1 NIL_1    0.000
132 H_18131 89.421 46.359 -30.912 H 1 NIL_1    0.000
133 H_18132 87.783 45.765 -31.298 H 1 NIL_1    0.000
134 H_18271 80.071 46.026 -32.236 H 1 NIL_1    0.000
135 H_18272 81.491 46.754 -33.006 H 1 NIL_1    0.000
136 H_18791 80.730 52.284 -32.448 H 1 NIL_1    0.000
137 H_18792 81.321 51.101 -33.628 H 1 NIL_1    0.000
138 HP 80.883 46.448 -30.059 H 1 NIL_1    0.000
139 H_2210 82.016 57.879 -37.589 H 1 NIL_1    0.000
140 H_2206 83.759 55.306 -40.429 H 1 NIL_1    0.000
141 H_18761 89.485 51.351 -30.394 H 1 NIL_1    0.000
142 H_18762 88.791 51.948 -31.927 H 1 NIL_1    0.000
143 H_18721 82.784 51.190 -31.609 H 1 NIL_1    0.000
144 H_18722 81.418 50.934 -30.556 H 1 NIL_1    0.000
145 H_2212 83.776 57.352 -36.051 H 1 NIL_1    0.000
146 H_2204 85.503 54.801 -38.898 H 1 NIL_1    0.000
147 H_18711 87.334 50.866 -29.478 H 1 NIL_1    0.000
148 H_18712 86.488 51.782 -30.696 H 1 NIL_1    0.000
149 H_18291 89.037 49.116 -30.708 H 1 NIL_1    0.000
150 H_18292 88.090 48.008 -31.683 H 1 NIL_1    0.000
151 H_18401 83.400 47.772 -32.446 H 1 NIL_1    0.000
152 H_18402 84.155 49.117 -31.603 H 1 NIL_1    0.000
153 H_18681 86.827 56.001 -36.882 H 1 NIL_1    0.000
154 H_18682 85.776 56.343 -35.514 H 1 NIL_1    0.000
155 HP 84.944 51.195 -31.915 H 1 NIL_1    0.000
156 H_18181 86.005 52.989 -32.786 H 1 NIL_1    0.000
157 H_18182 87.254 51.957 -33.487 H 1 NIL_1    0.000
158 H_18161 83.485 51.843 -35.093 H 1 NIL_1    0.000
159 H_18162 84.606 50.702 -35.877 H 1 NIL_1    0.000
160 HH 90.768 44.979 -28.946 H 1 NIL_1    0.000
161 HH 80.732 43.749 -30.632 H 1 NIL_1    0.000
162 HH 87.104 51.406 -36.081 H 1 NIL_1    0.000
@<TRIPOS>BOND
1 1 2 1 
2 3 1 1 
3 4 1 1 
4 5 10 1 
5 5 1 1 
6 5 162 1 
7 6 2 1 
8 7 3 1 
9 7 6 1 
10 7 155 1 
11 8 4 1 
12 9 4 2 
13 10 8 1 
14 11 6 1 
15 12 7 1 
16 13 8 1 
17 13 153 1 
18 13 154 1 
19 14 10 2 
20 15 11 2 
21 16 20 1 
22 16 11 1 
23 16 151 1 
24 16 152 1 
25 17 12 2 
26 18 12 1 
27 19 13 1 
28 20 25 1 
29 21 18 1 
30 21 27 1 
31 21 149 1 
32 21 150 1 
33 22 18 1 
34 22 28 1 
35 22 147 1 
36 22 148 1 
37 23 19 2 
38 23 146 1 
39 24 30 2 
40 24 19 1 
41 24 145 1 
42 25 31 1 
43 26 20 1 
44 26 33 1 
45 26 143 1 
46 26 144 1 
47 27 35 1 
48 28 141 1 
49 28 142 1 
50 29 23 1 
51 29 140 1 
52 30 37 1 
53 30 139 1 
54 31 138 1 
55 32 25 2 
56 33 136 1 
57 33 137 1 
58 34 27 2 
59 36 28 1 
60 37 29 2 
61 38 45 1 
62 38 31 1 
63 38 134 1 
64 38 135 1 
65 39 46 1 
66 39 31 1 
67 39 47 1 
68 40 33 1 
69 41 35 1 
70 41 49 1 
71 41 132 1 
72 41 133 1 
73 42 51 1 
74 42 35 1 
75 42 131 1 
76 43 36 1 
77 43 128 1 
78 43 129 1 
79 43 130 1 
80 44 37 1 
81 45 46 1 
82 46 126 1 
83 46 127 1 
84 48 40 1 
85 48 123 1 
86 48 124 1 
87 48 125 1 
88 50 42 1 
89 50 59 2 
90 51 49 1 
91 52 44 1 
92 52 118 1 
93 52 119 1 
94 52 120 1 
95 53 45 1 
96 54 63 1 
97 54 45 1 
98 54 161 1 
99 55 47 2 
100 56 60 1 
101 56 47 1 
102 56 116 1 
103 56 117 1 
104 57 49 1 
105 58 66 1 
106 58 49 1 
107 58 160 1 
108 60 50 1 
109 61 53 1 
110 62 53 2 
111 63 61 1 
112 64 57 1 
113 65 57 2 
114 66 64 1 
115 67 60 1 
116 67 72 1 
117 67 114 1 
118 67 115 1 
119 68 61 1 
120 68 112 1 
121 68 113 1 
122 69 63 2 
123 70 64 1 
124 70 74 1 
125 71 66 2 
126 73 68 1 
127 73 76 2 
128 73 77 1 
129 74 78 1 
130 75 72 1 
131 77 82 2 
132 79 84 1 
133 79 74 2 
134 79 104 1 
135 80 75 1 
136 81 76 1 
137 82 85 1 
138 83 78 2 
139 84 86 2 
140 84 97 1 
141 85 81 2 
142 86 88 1 
143 86 83 1 
144 87 85 1 
145 89 87 1 
146 89 96 1 
147 90 88 1 
148 91 90 1 
149 92 90 1 
150 93 90 1 
151 94 89 1 
152 95 89 1 
153 98 83 1 
154 99 82 1 
155 100 81 1 
156 101 80 1 
157 102 80 1 
158 103 80 1 
159 105 78 1 
160 106 77 1 
161 107 76 1 
162 108 72 1 
163 109 72 1 
164 110 70 1 
165 111 70 1 
166 121 51 1 
167 122 51 1 
168 156 3 1 
169 157 3 1 
170 158 2 1 
171 159 2 1 
@<TRIPOS>SUBSTRUCTURE
1 NIL_1 1 RESIDUE 1 A NIL 1
