@<TRIPOS>MOLECULE
NIL
162 171 1 0 0
POLYMER
CHARGES


@<TRIPOS>ATOM
1 CQ 101.771 72.48 -10.4204 C.3 1 NIL_1    0.000
2 C_1816 100.715 71.370 -10.553 C.3 1 NIL_1    0.000
3 C_1818 103.015 71.764 -9.875 C.3 1 NIL_1    0.000
4 C_1854 101.308 73.645 -9.580 C.2 1 NIL_1    0.000
5 NH 102.024 73.179 -11.672 N.am 1 NIL_1    0.000
6 N 101.458 70.125 -10.773 N.am 1 NIL_1    0.000
7 CP 102.870 70.314 -10.381 C.3 1 NIL_1    0.000
8 N 101.338 74.759 -10.349 N.am 1 NIL_1    0.000
9 O 100.959 73.594 -8.416 O.2 1 NIL_1    0.000
10 C_1856 101.773 74.497 -11.604 C.2 1 NIL_1    0.000
11 C_1841 100.963 68.951 -11.246 C.2 1 NIL_1    0.000
12 C_1838 103.800 70.028 -11.559 C.2 1 NIL_1    0.000
13 C_1868 100.908 76.092 -9.890 C.3 1 NIL_1    0.000
14 O 101.911 75.293 -12.511 O.2 1 NIL_1    0.000
15 O 101.717 68.035 -11.506 O.2 1 NIL_1    0.000
16 C_1840 99.462 68.813 -11.466 C.3 1 NIL_1    0.000
17 O 103.626 70.656 -12.586 O.2 1 NIL_1    0.000
18 N 104.771 69.060 -11.479 N.am 1 NIL_1    0.000
19 C_1869 99.749 76.671 -10.682 C.2 1 NIL_1    0.000
20 N 98.979 67.449 -11.149 N.am 1 NIL_1    0.000
21 C_1829 104.901 68.061 -10.367 C.3 1 NIL_1    0.000
22 C_1871 105.466 68.640 -12.727 C.3 1 NIL_1    0.000
23 C_2204 98.701 75.913 -11.022 C.2 1 NIL_1    0.000
24 C_2212 99.753 77.956 -11.052 C.2 1 NIL_1    0.000
25 C_1843 99.260 66.368 -11.939 C.2 1 NIL_1    0.000
26 C_1872 98.353 67.377 -9.811 C.3 1 NIL_1    0.000
27 C_1830 106.306 67.547 -10.050 C.2 1 NIL_1    0.000
28 C_1876 106.665 69.537 -13.137 C.3 1 NIL_1    0.000
29 C_2206 97.694 76.421 -11.730 C.2 1 NIL_1    0.000
30 C_2210 98.743 78.469 -11.757 C.2 1 NIL_1    0.000
31 AP 98.988 64.959 -11.398 C.3 1 NIL_1    0.000
32 O 99.749 66.517 -13.043 O.2 1 NIL_1    0.000
33 C_1879 96.818 67.252 -9.907 C.3 1 NIL_1    0.000
34 O 107.294 68.143 -10.432 O.2 1 NIL_1    0.000
35 N 106.460 66.435 -9.271 N.am 1 NIL_1    0.000
36 O 106.249 70.846 -13.593 O.3 1 NIL_1    0.000
37 C_2208 97.700 77.701 -12.110 C.2 1 NIL_1    0.000
38 C_1827 98.171 64.119 -12.388 C.3 1 NIL_1    0.000
39 N 100.202 64.190 -11.035 N.am 1 NIL_1    0.000
40 O 96.240 68.443 -10.493 O.3 1 NIL_1    0.000
41 C_1813 107.797 65.980 -8.855 C.3 1 NIL_1    0.000
42 BP 105.422 65.627 -8.571 C.3 1 NIL_1    0.000
43 C_1878 105.774 70.932 -14.954 C.3 1 NIL_1    0.000
44 O 96.628 78.138 -12.849 O.3 1 NIL_1    0.000
45 AQ 98.661 62.687 -12.149 C.3 1 NIL_1    0.000
46 C_1825 100.063 62.812 -11.524 C.3 1 NIL_1    0.000
47 C_1844 101.234 64.654 -10.279 C.2 1 NIL_1    0.000
48 C_1881 96.167 69.603 -9.634 C.3 1 NIL_1    0.000
49 BQ 107.644 64.676 -8.070 C.3 1 NIL_1    0.000
50 C_1833 104.465 64.858 -9.487 C.2 1 NIL_1    0.000
51 C_1815 106.180 64.668 -7.618 C.3 1 NIL_1    0.000
52 C_2271 96.555 79.521 -13.267 C.3 1 NIL_1    0.000
53 C_1846 98.646 61.877 -13.418 C.2 1 NIL_1    0.000
54 NH 97.736 61.900 -11.345 N.am 1 NIL_1    0.000
55 O 101.288 65.818 -9.946 O.2 1 NIL_1    0.000
56 C_1835 102.301 63.664 -9.822 C.3 1 NIL_1    0.000
57 C_1850 108.015 63.459 -8.890 C.2 1 NIL_1    0.000
58 NH 108.609 64.538 -6.992 N.am 1 NIL_1    0.000
59 O 104.712 64.746 -10.674 O.2 1 NIL_1    0.000
60 N 103.329 64.298 -8.956 N.am 1 NIL_1    0.000
61 N 97.776 60.857 -13.250 N.am 1 NIL_1    0.000
62 O 99.291 62.103 -14.425 O.2 1 NIL_1    0.000
63 C_1848 97.219 60.856 -12.016 C.2 1 NIL_1    0.000
64 N 109.049 62.839 -8.271 N.am 1 NIL_1    0.000
65 O 107.482 63.094 -9.920 O.2 1 NIL_1    0.000
66 C_1852 109.424 63.482 -7.140 C.2 1 NIL_1    0.000
67 C_1870 103.011 64.149 -7.506 C.3 1 NIL_1    0.000
68 C_1866 97.498 59.850 -14.283 C.3 1 NIL_1    0.000
69 O 96.406 60.066 -11.582 O.2 1 NIL_1    0.000
70 C_1864 109.679 61.593 -8.743 C.3 1 NIL_1    0.000
71 O 110.327 63.176 -6.386 O.2 1 NIL_1    0.000
72 C_1873 101.646 64.708 -7.030 C.3 1 NIL_1    0.000
73 C_1867 96.330 60.099 -15.221 C.2 1 NIL_1    0.000
74 C_1865 109.497 60.468 -7.741 C.2 1 NIL_1    0.000
75 O 101.580 66.147 -7.173 O.3 1 NIL_1    0.000
76 C_2172 95.792 59.058 -15.862 C.2 1 NIL_1    0.000
77 C_2180 95.828 61.319 -15.456 C.2 1 NIL_1    0.000
78 C_2196 108.282 59.975 -7.484 C.2 1 NIL_1    0.000
79 C_2188 110.545 59.965 -7.082 C.2 1 NIL_1    0.000
80 C_1875 102.296 66.930 -6.194 C.3 1 NIL_1    0.000
81 C_2174 94.783 59.226 -16.713 C.2 1 NIL_1    0.000
82 C_2178 94.814 61.490 -16.307 C.2 1 NIL_1    0.000
83 C_2194 108.119 59.004 -6.583 C.2 1 NIL_1    0.000
84 C_2190 110.385 58.994 -6.181 C.2 1 NIL_1    0.000
85 C_2176 94.280 60.439 -16.949 C.2 1 NIL_1    0.000
86 C_2192 109.165 58.504 -5.919 C.2 1 NIL_1    0.000
87 O 93.246 60.517 -17.848 O.3 1 NIL_1    0.000
88 O 108.914 57.515 -4.999 O.3 1 NIL_1    0.000
89 C_2273 92.531 61.762 -18.029 C.3 1 NIL_1    0.000
90 C_2269 110.014 56.932 -4.259 C.3 1 NIL_1    0.000
91 H_22691 110.712 56.461 -4.957 H 1 NIL_1    0.000
92 H_22692 109.618 56.177 -3.576 H 1 NIL_1    0.000
93 H_22693 110.521 57.711 -3.683 H 1 NIL_1    0.000
94 H_22731 92.109 62.083 -17.073 H 1 NIL_1    0.000
95 H_22732 91.721 61.594 -18.744 H 1 NIL_1    0.000
96 H_22733 93.209 62.524 -18.424 H 1 NIL_1    0.000
97 H_2190 111.268 58.624 -5.667 H 1 NIL_1    0.000
98 H_2194 107.120 58.624 -6.387 H 1 NIL_1    0.000
99 H_2178 94.440 62.498 -16.470 H 1 NIL_1    0.000
100 H_2174 94.367 58.360 -17.223 H 1 NIL_1    0.000
101 H_18751 102.133 67.989 -6.409 H 1 NIL_1    0.000
102 H_18752 103.363 66.707 -6.255 H 1 NIL_1    0.000
103 H_18753 101.920 66.698 -5.195 H 1 NIL_1    0.000
104 H_2188 111.543 60.355 -7.272 H 1 NIL_1    0.000
105 H_2196 107.413 60.371 -8.004 H 1 NIL_1    0.000
106 H_2180 96.244 62.192 -14.957 H 1 NIL_1    0.000
107 H_2172 96.183 58.058 -15.694 H 1 NIL_1    0.000
108 H_18731 100.834 64.266 -7.613 H 1 NIL_1    0.000
109 H_18732 101.487 64.450 -5.979 H 1 NIL_1    0.000
110 H_18641 110.743 61.787 -8.902 H 1 NIL_1    0.000
111 H_18642 109.247 61.301 -9.703 H 1 NIL_1    0.000
112 H_18661 97.339 58.897 -13.770 H 1 NIL_1    0.000
113 H_18662 98.401 59.731 -14.888 H 1 NIL_1    0.000
114 H_18701 103.778 64.604 -6.886 H 1 NIL_1    0.000
115 H_18702 103.022 63.079 -7.281 H 1 NIL_1    0.000
116 H_18351 101.796 62.861 -9.278 H 1 NIL_1    0.000
117 H_18352 102.765 63.225 -10.710 H 1 NIL_1    0.000
118 H_22711 96.513 80.166 -12.385 H 1 NIL_1    0.000
119 H_22712 95.646 79.655 -13.860 H 1 NIL_1    0.000
120 H_22713 97.426 79.769 -13.880 H 1 NIL_1    0.000
121 H_18151 106.109 65.064 -6.601 H 1 NIL_1    0.000
122 H_18152 105.771 63.653 -7.616 H 1 NIL_1    0.000
123 H_18811 95.636 69.333 -8.718 H 1 NIL_1    0.000
124 H_18812 95.623 70.393 -10.157 H 1 NIL_1    0.000
125 H_18813 97.172 69.956 -9.388 H 1 NIL_1    0.000
126 H_18251 100.185 62.099 -10.704 H 1 NIL_1    0.000
127 H_18252 100.838 62.630 -12.275 H 1 NIL_1    0.000
128 H_18781 104.852 70.355 -15.064 H 1 NIL_1    0.000
129 H_18782 106.543 70.538 -15.625 H 1 NIL_1    0.000
130 H_18783 105.582 71.982 -15.194 H 1 NIL_1    0.000
131 HP 104.802 66.306 -7.980 H 1 NIL_1    0.000
132 H_18131 108.227 66.748 -8.204 H 1 NIL_1    0.000
133 H_18132 108.446 65.841 -9.725 H 1 NIL_1    0.000
134 H_18271 97.097 64.227 -12.208 H 1 NIL_1    0.000
135 H_18272 98.376 64.416 -13.417 H 1 NIL_1    0.000
136 H_18791 96.560 66.402 -10.544 H 1 NIL_1    0.000
137 H_18792 96.385 67.087 -8.916 H 1 NIL_1    0.000
138 HP 98.380 65.009 -10.497 H 1 NIL_1    0.000
139 H_2210 98.792 79.519 -12.038 H 1 NIL_1    0.000
140 H_2206 96.859 75.779 -12.001 H 1 NIL_1    0.000
141 H_18761 107.333 69.686 -12.288 H 1 NIL_1    0.000
142 H_18762 107.224 69.052 -13.942 H 1 NIL_1    0.000
143 H_18721 98.612 68.260 -9.220 H 1 NIL_1    0.000
144 H_18722 98.758 66.530 -9.255 H 1 NIL_1    0.000
145 H_2212 100.590 78.595 -10.779 H 1 NIL_1    0.000
146 H_2204 98.664 74.866 -10.731 H 1 NIL_1    0.000
147 H_18711 104.741 68.605 -13.546 H 1 NIL_1    0.000
148 H_18712 105.835 67.617 -12.610 H 1 NIL_1    0.000
149 H_18291 104.270 67.208 -10.623 H 1 NIL_1    0.000
150 H_18292 104.561 68.470 -9.418 H 1 NIL_1    0.000
151 H_18401 98.939 69.543 -10.845 H 1 NIL_1    0.000
152 H_18402 99.257 69.054 -12.512 H 1 NIL_1    0.000
153 H_18681 101.770 76.762 -9.950 H 1 NIL_1    0.000
154 H_18682 100.613 76.034 -8.839 H 1 NIL_1    0.000
155 HP 103.065 69.648 -9.548 H 1 NIL_1    0.000
156 H_18181 102.996 71.765 -8.782 H 1 NIL_1    0.000
157 H_18182 103.945 72.238 -10.199 H 1 NIL_1    0.000
158 H_18161 100.147 71.274 -9.623 H 1 NIL_1    0.000
159 H_18162 100.033 71.573 -11.383 H 1 NIL_1    0.000
160 HH 108.658 65.184 -6.219 H 1 NIL_1    0.000
161 HH 97.518 62.122 -10.385 H 1 NIL_1    0.000
162 HH 102.374 72.711 -12.495 H 1 NIL_1    0.000
@<TRIPOS>BOND
1 1 2 1 
2 3 1 1 
3 4 1 1 
4 5 10 1 
5 5 1 1 
6 5 162 1 
7 6 2 1 
8 7 3 1 
9 7 6 1 
10 7 155 1 
11 8 4 1 
12 9 4 2 
13 10 8 1 
14 11 6 1 
15 12 7 1 
16 13 8 1 
17 13 153 1 
18 13 154 1 
19 14 10 2 
20 15 11 2 
21 16 20 1 
22 16 11 1 
23 16 151 1 
24 16 152 1 
25 17 12 2 
26 18 12 1 
27 19 13 1 
28 20 25 1 
29 21 18 1 
30 21 27 1 
31 21 149 1 
32 21 150 1 
33 22 18 1 
34 22 28 1 
35 22 147 1 
36 22 148 1 
37 23 19 2 
38 23 146 1 
39 24 30 2 
40 24 19 1 
41 24 145 1 
42 25 31 1 
43 26 20 1 
44 26 33 1 
45 26 143 1 
46 26 144 1 
47 27 35 1 
48 28 141 1 
49 28 142 1 
50 29 23 1 
51 29 140 1 
52 30 37 1 
53 30 139 1 
54 31 138 1 
55 32 25 2 
56 33 136 1 
57 33 137 1 
58 34 27 2 
59 36 28 1 
60 37 29 2 
61 38 45 1 
62 38 31 1 
63 38 134 1 
64 38 135 1 
65 39 46 1 
66 39 31 1 
67 39 47 1 
68 40 33 1 
69 41 35 1 
70 41 49 1 
71 41 132 1 
72 41 133 1 
73 42 51 1 
74 42 35 1 
75 42 131 1 
76 43 36 1 
77 43 128 1 
78 43 129 1 
79 43 130 1 
80 44 37 1 
81 45 46 1 
82 46 126 1 
83 46 127 1 
84 48 40 1 
85 48 123 1 
86 48 124 1 
87 48 125 1 
88 50 42 1 
89 50 59 2 
90 51 49 1 
91 52 44 1 
92 52 118 1 
93 52 119 1 
94 52 120 1 
95 53 45 1 
96 54 63 1 
97 54 45 1 
98 54 161 1 
99 55 47 2 
100 56 60 1 
101 56 47 1 
102 56 116 1 
103 56 117 1 
104 57 49 1 
105 58 66 1 
106 58 49 1 
107 58 160 1 
108 60 50 1 
109 61 53 1 
110 62 53 2 
111 63 61 1 
112 64 57 1 
113 65 57 2 
114 66 64 1 
115 67 60 1 
116 67 72 1 
117 67 114 1 
118 67 115 1 
119 68 61 1 
120 68 112 1 
121 68 113 1 
122 69 63 2 
123 70 64 1 
124 70 74 1 
125 71 66 2 
126 73 68 1 
127 73 76 2 
128 73 77 1 
129 74 78 1 
130 75 72 1 
131 77 82 2 
132 79 84 1 
133 79 74 2 
134 79 104 1 
135 80 75 1 
136 81 76 1 
137 82 85 1 
138 83 78 2 
139 84 86 2 
140 84 97 1 
141 85 81 2 
142 86 88 1 
143 86 83 1 
144 87 85 1 
145 89 87 1 
146 89 96 1 
147 90 88 1 
148 91 90 1 
149 92 90 1 
150 93 90 1 
151 94 89 1 
152 95 89 1 
153 98 83 1 
154 99 82 1 
155 100 81 1 
156 101 80 1 
157 102 80 1 
158 103 80 1 
159 105 78 1 
160 106 77 1 
161 107 76 1 
162 108 72 1 
163 109 72 1 
164 110 70 1 
165 111 70 1 
166 121 51 1 
167 122 51 1 
168 156 3 1 
169 157 3 1 
170 158 2 1 
171 159 2 1 
@<TRIPOS>SUBSTRUCTURE
1 NIL_1 1 RESIDUE 1 A NIL 1
