@<TRIPOS>MOLECULE
NIL
162 171 1 0 0
POLYMER
CHARGES


@<TRIPOS>ATOM
1 CQ 93.4961 62.2445 -21.7089 C.3 1 NIL_1    0.000
2 C_1816 92.239 61.665 -21.054 C.3 1 NIL_1    0.000
3 C_1818 94.600 61.264 -21.311 C.3 1 NIL_1    0.000
4 C_1854 93.790 63.651 -21.240 C.2 1 NIL_1    0.000
5 NH 93.381 62.488 -23.137 N.am 1 NIL_1    0.000
6 N 92.680 60.923 -19.859 N.am 1 NIL_1    0.000
7 CP 94.151 60.720 -19.938 C.3 1 NIL_1    0.000
8 N 93.830 64.455 -22.328 N.am 1 NIL_1    0.000
9 O 93.961 64.012 -20.091 O.2 1 NIL_1    0.000
10 C_1856 93.576 63.775 -23.471 C.2 1 NIL_1    0.000
11 C_1841 91.833 60.640 -18.825 C.2 1 NIL_1    0.000
12 C_1838 94.626 59.272 -19.798 C.2 1 NIL_1    0.000
13 C_1868 94.133 65.896 -22.277 C.3 1 NIL_1    0.000
14 O 93.529 64.227 -24.598 O.2 1 NIL_1    0.000
15 O 90.670 60.985 -18.878 O.2 1 NIL_1    0.000
16 C_1840 92.358 59.938 -17.577 C.3 1 NIL_1    0.000
17 O 93.932 58.370 -20.231 O.2 1 NIL_1    0.000
18 N 95.850 59.009 -19.238 N.am 1 NIL_1    0.000
19 C_1869 93.069 66.803 -21.681 C.2 1 NIL_1    0.000
20 N 91.828 58.560 -17.392 N.am 1 NIL_1    0.000
21 C_1829 96.313 57.625 -18.969 C.3 1 NIL_1    0.000
22 C_1871 96.724 60.005 -18.571 C.3 1 NIL_1    0.000
23 C_2204 93.425 67.962 -21.117 C.2 1 NIL_1    0.000
24 C_2212 91.769 66.486 -21.713 C.2 1 NIL_1    0.000
25 C_1843 92.667 57.483 -17.349 C.2 1 NIL_1    0.000
26 C_1872 90.455 58.556 -16.816 C.3 1 NIL_1    0.000
27 C_1830 97.520 57.172 -19.774 C.2 1 NIL_1    0.000
28 C_1876 97.731 60.688 -19.523 C.3 1 NIL_1    0.000
29 C_2206 92.509 68.781 -20.597 C.2 1 NIL_1    0.000
30 C_2210 90.851 67.299 -21.189 C.2 1 NIL_1    0.000
31 AP 92.097 56.068 -17.468 C.3 1 NIL_1    0.000
32 O 93.868 57.643 -17.283 O.2 1 NIL_1    0.000
33 C_1879 89.299 58.064 -17.714 C.3 1 NIL_1    0.000
34 O 97.755 57.641 -20.873 O.2 1 NIL_1    0.000
35 N 98.308 56.193 -19.245 N.am 1 NIL_1    0.000
36 O 99.026 60.044 -19.460 O.3 1 NIL_1    0.000
37 C_2208 91.214 68.456 -20.620 C.2 1 NIL_1    0.000
38 C_1827 91.554 55.836 -18.895 C.3 1 NIL_1    0.000
39 N 93.096 54.985 -17.248 N.am 1 NIL_1    0.000
40 O 89.532 58.420 -19.094 O.3 1 NIL_1    0.000
41 C_1813 99.492 55.658 -19.933 C.3 1 NIL_1    0.000
42 BP 98.175 55.569 -17.907 C.3 1 NIL_1    0.000
43 C_1878 99.830 60.294 -18.283 C.3 1 NIL_1    0.000
44 O 90.323 69.340 -20.071 O.3 1 NIL_1    0.000
45 AQ 91.741 54.342 -19.127 C.3 1 NIL_1    0.000
46 C_1825 93.030 54.027 -18.366 C.3 1 NIL_1    0.000
47 C_1844 93.906 54.878 -16.158 C.2 1 NIL_1    0.000
48 C_1881 88.548 57.945 -20.036 C.3 1 NIL_1    0.000
49 BQ 100.091 54.538 -19.065 C.3 1 NIL_1    0.000
50 C_1833 96.870 54.787 -17.722 C.2 1 NIL_1    0.000
51 C_1815 99.409 54.664 -17.693 C.3 1 NIL_1    0.000
52 C_2271 89.144 68.810 -19.422 C.3 1 NIL_1    0.000
53 C_1846 91.745 53.972 -20.589 C.2 1 NIL_1    0.000
54 NH 90.597 53.562 -18.681 N.am 1 NIL_1    0.000
55 O 93.694 55.551 -15.168 O.2 1 NIL_1    0.000
56 C_1835 95.091 53.913 -16.197 C.3 1 NIL_1    0.000
57 C_1850 99.902 53.161 -19.668 C.2 1 NIL_1    0.000
58 NH 101.544 54.566 -19.009 N.am 1 NIL_1    0.000
59 O 96.283 54.347 -18.691 O.2 1 NIL_1    0.000
60 N 96.391 54.586 -16.456 N.am 1 NIL_1    0.000
61 N 90.675 53.174 -20.819 N.am 1 NIL_1    0.000
62 O 92.554 54.335 -21.420 O.2 1 NIL_1    0.000
63 C_1848 89.980 52.915 -19.684 C.2 1 NIL_1    0.000
64 N 101.128 52.609 -19.860 N.am 1 NIL_1    0.000
65 O 98.836 52.638 -19.931 O.2 1 NIL_1    0.000
66 C_1852 102.121 53.449 -19.479 C.2 1 NIL_1    0.000
67 C_1870 97.138 54.895 -15.208 C.3 1 NIL_1    0.000
68 C_1866 90.324 52.630 -22.140 C.3 1 NIL_1    0.000
69 O 88.989 52.222 -19.576 O.2 1 NIL_1    0.000
70 C_1864 101.364 51.286 -20.472 C.3 1 NIL_1    0.000
71 O 103.317 53.253 -19.551 O.2 1 NIL_1    0.000
72 C_1873 96.681 56.164 -14.460 C.3 1 NIL_1    0.000
73 C_1867 89.212 53.327 -22.909 C.2 1 NIL_1    0.000
74 C_1865 102.200 50.323 -19.645 C.2 1 NIL_1    0.000
75 O 96.350 57.218 -15.390 O.3 1 NIL_1    0.000
76 C_2172 88.480 52.618 -23.772 C.2 1 NIL_1    0.000
77 C_2180 88.951 54.633 -22.776 C.2 1 NIL_1    0.000
78 C_2196 101.652 49.620 -18.650 C.2 1 NIL_1    0.000
79 C_2188 103.498 50.146 -19.911 C.2 1 NIL_1    0.000
80 C_1875 95.626 58.325 -14.813 C.3 1 NIL_1    0.000
81 C_2174 87.513 53.191 -24.488 C.2 1 NIL_1    0.000
82 C_2178 87.981 55.209 -23.490 C.2 1 NIL_1    0.000
83 C_2194 102.383 48.757 -17.942 C.2 1 NIL_1    0.000
84 C_2190 104.233 49.286 -19.203 C.2 1 NIL_1    0.000
85 C_2176 87.253 54.500 -24.356 C.2 1 NIL_1    0.000
86 C_2192 103.680 48.575 -18.210 C.2 1 NIL_1    0.000
87 O 86.277 55.158 -25.063 O.3 1 NIL_1    0.000
88 O 104.368 47.670 -17.439 O.3 1 NIL_1    0.000
89 C_2273 85.677 54.515 -26.216 C.3 1 NIL_1    0.000
90 C_2269 105.697 47.251 -17.839 C.3 1 NIL_1    0.000
91 H_22691 106.067 46.515 -17.121 H 1 NIL_1    0.000
92 H_22692 106.370 48.113 -17.844 H 1 NIL_1    0.000
93 H_22693 105.655 46.798 -18.834 H 1 NIL_1    0.000
94 H_22731 85.115 53.632 -25.897 H 1 NIL_1    0.000
95 H_22732 86.461 54.227 -26.922 H 1 NIL_1    0.000
96 H_22733 84.995 55.219 -26.698 H 1 NIL_1    0.000
97 H_2190 105.284 49.182 -19.456 H 1 NIL_1    0.000
98 H_2194 101.913 48.193 -17.139 H 1 NIL_1    0.000
99 H_2178 87.789 56.274 -23.368 H 1 NIL_1    0.000
100 H_2174 86.951 52.567 -25.177 H 1 NIL_1    0.000
101 H_18751 96.223 58.781 -14.020 H 1 NIL_1    0.000
102 H_18752 94.681 57.958 -14.403 H 1 NIL_1    0.000
103 H_18753 95.419 59.063 -15.592 H 1 NIL_1    0.000
104 H_2188 103.970 50.706 -20.715 H 1 NIL_1    0.000
105 H_2196 100.597 49.744 -18.415 H 1 NIL_1    0.000
106 H_2180 89.531 55.245 -22.089 H 1 NIL_1    0.000
107 H_2172 88.676 51.557 -23.903 H 1 NIL_1    0.000
108 H_18731 95.799 55.927 -13.861 H 1 NIL_1    0.000
109 H_18732 97.476 56.510 -13.794 H 1 NIL_1    0.000
110 H_18641 101.854 51.452 -21.436 H 1 NIL_1    0.000
111 H_18642 100.401 50.814 -20.682 H 1 NIL_1    0.000
112 H_18661 90.050 51.582 -21.995 H 1 NIL_1    0.000
113 H_18662 91.223 52.633 -22.762 H 1 NIL_1    0.000
114 H_18701 98.203 54.987 -15.418 H 1 NIL_1    0.000
115 H_18702 97.043 54.046 -14.525 H 1 NIL_1    0.000
116 H_18351 95.116 53.415 -15.225 H 1 NIL_1    0.000
117 H_18352 94.923 53.134 -16.943 H 1 NIL_1    0.000
118 H_22711 88.475 68.368 -20.165 H 1 NIL_1    0.000
119 H_22712 88.632 69.633 -18.916 H 1 NIL_1    0.000
120 H_22713 89.441 68.059 -18.686 H 1 NIL_1    0.000
121 H_18151 100.082 55.150 -16.983 H 1 NIL_1    0.000
122 H_18152 99.144 53.685 -17.284 H 1 NIL_1    0.000
123 H_18811 88.592 56.854 -20.089 H 1 NIL_1    0.000
124 H_18812 88.767 58.371 -21.017 H 1 NIL_1    0.000
125 H_18813 87.554 58.261 -19.710 H 1 NIL_1    0.000
126 H_18251 93.021 52.997 -18.001 H 1 NIL_1    0.000
127 H_18252 93.887 54.182 -19.023 H 1 NIL_1    0.000
128 H_18781 100.805 59.822 -18.425 H 1 NIL_1    0.000
129 H_18782 99.350 59.868 -17.399 H 1 NIL_1    0.000
130 H_18783 99.965 61.372 -18.156 H 1 NIL_1    0.000
131 HP 98.193 56.368 -17.161 H 1 NIL_1    0.000
132 H_18131 100.213 56.472 -20.049 H 1 NIL_1    0.000
133 H_18132 99.213 55.280 -20.920 H 1 NIL_1    0.000
134 H_18271 90.513 56.107 -19.020 H 1 NIL_1    0.000
135 H_18272 92.150 56.400 -19.616 H 1 NIL_1    0.000
136 H_18791 89.197 56.980 -17.625 H 1 NIL_1    0.000
137 H_18792 88.362 58.519 -17.388 H 1 NIL_1    0.000
138 HP 91.293 55.947 -16.738 H 1 NIL_1    0.000
139 H_2210 89.805 67.004 -21.243 H 1 NIL_1    0.000
140 H_2206 92.824 69.719 -20.146 H 1 NIL_1    0.000
141 H_18761 97.372 60.624 -20.552 H 1 NIL_1    0.000
142 H_18762 97.850 61.742 -19.259 H 1 NIL_1    0.000
143 H_18721 90.199 59.572 -16.503 H 1 NIL_1    0.000
144 H_18722 90.468 57.948 -15.908 H 1 NIL_1    0.000
145 H_2212 91.442 65.557 -22.175 H 1 NIL_1    0.000
146 H_2204 94.471 68.251 -21.078 H 1 NIL_1    0.000
147 H_18711 97.274 59.519 -17.762 H 1 NIL_1    0.000
148 H_18712 96.117 60.766 -18.084 H 1 NIL_1    0.000
149 H_18291 95.522 56.901 -19.181 H 1 NIL_1    0.000
150 H_18292 96.551 57.550 -17.907 H 1 NIL_1    0.000
151 H_18401 93.446 59.945 -17.589 H 1 NIL_1    0.000
152 H_18402 92.063 60.560 -16.728 H 1 NIL_1    0.000
153 H_18681 94.349 66.241 -23.292 H 1 NIL_1    0.000
154 H_18682 95.058 66.006 -21.703 H 1 NIL_1    0.000
155 HP 94.579 61.340 -19.153 H 1 NIL_1    0.000
156 H_18181 95.579 61.745 -21.267 H 1 NIL_1    0.000
157 H_18182 94.644 60.450 -22.042 H 1 NIL_1    0.000
158 H_18161 91.536 62.461 -20.789 H 1 NIL_1    0.000
159 H_18162 91.754 60.961 -21.735 H 1 NIL_1    0.000
160 HH 102.062 55.370 -18.688 H 1 NIL_1    0.000
161 HH 90.303 53.530 -17.717 H 1 NIL_1    0.000
162 HH 93.188 61.756 -23.801 H 1 NIL_1    0.000
@<TRIPOS>BOND
1 1 2 1 
2 3 1 1 
3 4 1 1 
4 5 10 1 
5 5 1 1 
6 5 162 1 
7 6 2 1 
8 7 3 1 
9 7 6 1 
10 7 155 1 
11 8 4 1 
12 9 4 2 
13 10 8 1 
14 11 6 1 
15 12 7 1 
16 13 8 1 
17 13 153 1 
18 13 154 1 
19 14 10 2 
20 15 11 2 
21 16 20 1 
22 16 11 1 
23 16 151 1 
24 16 152 1 
25 17 12 2 
26 18 12 1 
27 19 13 1 
28 20 25 1 
29 21 18 1 
30 21 27 1 
31 21 149 1 
32 21 150 1 
33 22 18 1 
34 22 28 1 
35 22 147 1 
36 22 148 1 
37 23 19 2 
38 23 146 1 
39 24 30 2 
40 24 19 1 
41 24 145 1 
42 25 31 1 
43 26 20 1 
44 26 33 1 
45 26 143 1 
46 26 144 1 
47 27 35 1 
48 28 141 1 
49 28 142 1 
50 29 23 1 
51 29 140 1 
52 30 37 1 
53 30 139 1 
54 31 138 1 
55 32 25 2 
56 33 136 1 
57 33 137 1 
58 34 27 2 
59 36 28 1 
60 37 29 2 
61 38 45 1 
62 38 31 1 
63 38 134 1 
64 38 135 1 
65 39 46 1 
66 39 31 1 
67 39 47 1 
68 40 33 1 
69 41 35 1 
70 41 49 1 
71 41 132 1 
72 41 133 1 
73 42 51 1 
74 42 35 1 
75 42 131 1 
76 43 36 1 
77 43 128 1 
78 43 129 1 
79 43 130 1 
80 44 37 1 
81 45 46 1 
82 46 126 1 
83 46 127 1 
84 48 40 1 
85 48 123 1 
86 48 124 1 
87 48 125 1 
88 50 42 1 
89 50 59 2 
90 51 49 1 
91 52 44 1 
92 52 118 1 
93 52 119 1 
94 52 120 1 
95 53 45 1 
96 54 63 1 
97 54 45 1 
98 54 161 1 
99 55 47 2 
100 56 60 1 
101 56 47 1 
102 56 116 1 
103 56 117 1 
104 57 49 1 
105 58 66 1 
106 58 49 1 
107 58 160 1 
108 60 50 1 
109 61 53 1 
110 62 53 2 
111 63 61 1 
112 64 57 1 
113 65 57 2 
114 66 64 1 
115 67 60 1 
116 67 72 1 
117 67 114 1 
118 67 115 1 
119 68 61 1 
120 68 112 1 
121 68 113 1 
122 69 63 2 
123 70 64 1 
124 70 74 1 
125 71 66 2 
126 73 68 1 
127 73 76 2 
128 73 77 1 
129 74 78 1 
130 75 72 1 
131 77 82 2 
132 79 84 1 
133 79 74 2 
134 79 104 1 
135 80 75 1 
136 81 76 1 
137 82 85 1 
138 83 78 2 
139 84 86 2 
140 84 97 1 
141 85 81 2 
142 86 88 1 
143 86 83 1 
144 87 85 1 
145 89 87 1 
146 89 96 1 
147 90 88 1 
148 91 90 1 
149 92 90 1 
150 93 90 1 
151 94 89 1 
152 95 89 1 
153 98 83 1 
154 99 82 1 
155 100 81 1 
156 101 80 1 
157 102 80 1 
158 103 80 1 
159 105 78 1 
160 106 77 1 
161 107 76 1 
162 108 72 1 
163 109 72 1 
164 110 70 1 
165 111 70 1 
166 121 51 1 
167 122 51 1 
168 156 3 1 
169 157 3 1 
170 158 2 1 
171 159 2 1 
@<TRIPOS>SUBSTRUCTURE
1 NIL_1 1 RESIDUE 1 A NIL 1
