@<TRIPOS>MOLECULE
NIL
162 171 1 0 0
POLYMER
CHARGES


@<TRIPOS>ATOM
1 CQ 110.8 80.6153 -3.48104 C.3 1 NIL_1    0.000
2 C_1816 110.383 79.138 -3.549 C.3 1 NIL_1    0.000
3 C_1818 111.212 80.877 -2.023 C.3 1 NIL_1    0.000
4 C_1854 109.696 81.554 -3.910 C.2 1 NIL_1    0.000
5 NH 111.810 80.980 -4.459 N.am 1 NIL_1    0.000
6 N 110.147 78.672 -2.175 N.am 1 NIL_1    0.000
7 CP 110.647 79.688 -1.222 C.3 1 NIL_1    0.000
8 N 110.165 82.313 -4.928 N.am 1 NIL_1    0.000
9 O 108.589 81.637 -3.415 O.2 1 NIL_1    0.000
10 C_1856 111.426 81.970 -5.279 C.2 1 NIL_1    0.000
11 C_1841 109.574 77.466 -1.892 C.2 1 NIL_1    0.000
12 C_1838 111.638 79.233 -0.137 C.2 1 NIL_1    0.000
13 C_1868 109.443 83.457 -5.505 C.3 1 NIL_1    0.000
14 O 112.103 82.462 -6.159 O.2 1 NIL_1    0.000
15 O 109.409 76.652 -2.779 O.2 1 NIL_1    0.000
16 C_1840 109.080 77.203 -0.469 C.3 1 NIL_1    0.000
17 O 111.459 79.659 0.988 O.2 1 NIL_1    0.000
18 N 112.662 78.350 -0.381 N.am 1 NIL_1    0.000
19 C_1869 109.741 84.700 -4.688 C.2 1 NIL_1    0.000
20 N 109.166 75.780 -0.044 N.am 1 NIL_1    0.000
21 C_1829 113.335 77.633 0.745 C.3 1 NIL_1    0.000
22 C_1871 113.146 77.905 -1.717 C.3 1 NIL_1    0.000
23 C_2204 110.873 85.386 -4.870 C.2 1 NIL_1    0.000
24 C_2212 108.880 85.122 -3.758 C.2 1 NIL_1    0.000
25 C_1843 108.388 74.820 -0.623 C.2 1 NIL_1    0.000
26 C_1872 110.071 75.509 1.097 C.3 1 NIL_1    0.000
27 C_1830 114.838 77.475 0.578 C.2 1 NIL_1    0.000
28 C_1876 114.119 78.877 -2.421 C.3 1 NIL_1    0.000
29 C_2206 111.140 86.467 -4.135 C.2 1 NIL_1    0.000
30 C_2210 109.143 86.204 -3.022 C.2 1 NIL_1    0.000
31 AP 108.902 73.367 -0.675 C.3 1 NIL_1    0.000
32 O 107.348 75.148 -1.160 O.2 1 NIL_1    0.000
33 C_1879 110.055 76.528 2.258 C.3 1 NIL_1    0.000
34 O 115.511 78.490 0.535 O.2 1 NIL_1    0.000
35 N 115.445 76.248 0.477 N.am 1 NIL_1    0.000
36 O 114.972 78.146 -3.333 O.3 1 NIL_1    0.000
37 C_2208 110.283 86.889 -3.202 C.2 1 NIL_1    0.000
38 C_1827 107.896 72.419 -1.371 C.3 1 NIL_1    0.000
39 N 110.131 73.239 -1.497 N.am 1 NIL_1    0.000
40 O 110.842 76.009 3.347 O.3 1 NIL_1    0.000
41 C_1813 116.916 76.186 0.407 C.3 1 NIL_1    0.000
42 BP 114.960 74.862 0.776 C.3 1 NIL_1    0.000
43 C_1878 114.314 77.529 -4.462 C.3 1 NIL_1    0.000
44 O 110.628 88.012 -2.491 O.3 1 NIL_1    0.000
45 AQ 108.319 72.415 -2.858 C.3 1 NIL_1    0.000
46 C_1825 109.664 73.161 -2.892 C.3 1 NIL_1    0.000
47 C_1844 111.374 72.801 -1.129 C.2 1 NIL_1    0.000
48 C_1881 110.945 76.896 4.481 C.3 1 NIL_1    0.000
49 BQ 117.328 74.750 0.073 C.3 1 NIL_1    0.000
50 C_1833 113.605 74.361 0.247 C.2 1 NIL_1    0.000
51 C_1815 116.058 73.905 0.250 C.3 1 NIL_1    0.000
52 C_2271 109.882 88.367 -1.302 C.3 1 NIL_1    0.000
53 C_1846 107.317 73.035 -3.811 C.2 1 NIL_1    0.000
54 NH 108.386 71.080 -3.435 N.am 1 NIL_1    0.000
55 O 112.203 72.505 -1.970 O.2 1 NIL_1    0.000
56 C_1835 111.732 72.651 0.343 C.3 1 NIL_1    0.000
57 C_1850 117.900 74.653 -1.323 C.2 1 NIL_1    0.000
58 NH 118.472 74.257 0.825 N.am 1 NIL_1    0.000
59 O 113.090 74.923 -0.695 O.2 1 NIL_1    0.000
60 N 113.025 73.239 0.807 N.am 1 NIL_1    0.000
61 N 106.971 72.102 -4.727 N.am 1 NIL_1    0.000
62 O 106.919 74.184 -3.800 O.2 1 NIL_1    0.000
63 C_1848 107.609 70.928 -4.521 C.2 1 NIL_1    0.000
64 N 119.142 74.119 -1.236 N.am 1 NIL_1    0.000
65 O 117.352 75.001 -2.353 O.2 1 NIL_1    0.000
66 C_1852 119.498 73.872 0.046 C.2 1 NIL_1    0.000
67 C_1870 113.664 72.399 1.862 C.3 1 NIL_1    0.000
68 C_1866 106.105 72.371 -5.887 C.3 1 NIL_1    0.000
69 O 107.517 69.921 -5.193 O.2 1 NIL_1    0.000
70 C_1864 120.010 73.874 -2.404 C.3 1 NIL_1    0.000
71 O 120.543 73.391 0.435 O.2 1 NIL_1    0.000
72 C_1873 112.735 71.704 2.895 C.3 1 NIL_1    0.000
73 C_1867 104.646 72.003 -5.701 C.2 1 NIL_1    0.000
74 C_1865 119.739 72.634 -3.246 C.2 1 NIL_1    0.000
75 O 111.881 72.660 3.567 O.3 1 NIL_1    0.000
76 C_2172 104.078 71.073 -6.474 C.2 1 NIL_1    0.000
77 C_2180 103.892 72.621 -4.786 C.2 1 NIL_1    0.000
78 C_2196 120.709 72.146 -4.025 C.2 1 NIL_1    0.000
79 C_2188 118.548 72.020 -3.260 C.2 1 NIL_1    0.000
80 C_1875 112.531 73.540 4.509 C.3 1 NIL_1    0.000
81 C_2174 102.787 70.771 -6.339 C.2 1 NIL_1    0.000
82 C_2178 102.601 72.318 -4.646 C.2 1 NIL_1    0.000
83 C_2194 120.495 71.082 -4.802 C.2 1 NIL_1    0.000
84 C_2190 118.331 70.958 -4.036 C.2 1 NIL_1    0.000
85 C_2176 102.031 71.388 -5.427 C.2 1 NIL_1    0.000
86 C_2192 119.303 70.481 -4.825 C.2 1 NIL_1    0.000
87 O 100.706 71.032 -5.360 O.3 1 NIL_1    0.000
88 O 119.138 69.398 -5.652 O.3 1 NIL_1    0.000
89 C_2273 99.877 71.542 -4.288 C.3 1 NIL_1    0.000
90 C_2269 117.814 69.128 -6.176 C.3 1 NIL_1    0.000
91 H_22691 117.885 68.324 -6.913 H 1 NIL_1    0.000
92 H_22692 117.421 70.028 -6.657 H 1 NIL_1    0.000
93 H_22693 117.149 68.811 -5.368 H 1 NIL_1    0.000
94 H_22731 99.820 72.632 -4.348 H 1 NIL_1    0.000
95 H_22732 100.298 71.235 -3.327 H 1 NIL_1    0.000
96 H_22733 98.873 71.122 -4.395 H 1 NIL_1    0.000
97 H_2190 117.348 70.497 -4.010 H 1 NIL_1    0.000
98 H_2194 121.302 70.710 -5.430 H 1 NIL_1    0.000
99 H_2178 102.031 72.852 -3.891 H 1 NIL_1    0.000
100 H_2174 102.346 70.015 -6.986 H 1 NIL_1    0.000
101 H_18751 111.764 74.106 5.039 H 1 NIL_1    0.000
102 H_18752 113.192 74.228 3.973 H 1 NIL_1    0.000
103 H_18753 113.106 72.951 5.228 H 1 NIL_1    0.000
104 H_2188 117.729 72.376 -2.645 H 1 NIL_1    0.000
105 H_2196 121.686 72.625 -4.037 H 1 NIL_1    0.000
106 H_2180 104.327 73.390 -4.152 H 1 NIL_1    0.000
107 H_2172 104.667 70.559 -7.231 H 1 NIL_1    0.000
108 H_18731 112.099 70.962 2.406 H 1 NIL_1    0.000
109 H_18732 113.339 71.181 3.641 H 1 NIL_1    0.000
110 H_18641 121.047 73.841 -2.055 H 1 NIL_1    0.000
111 H_18642 119.934 74.747 -3.058 H 1 NIL_1    0.000
112 H_18661 106.513 71.830 -6.746 H 1 NIL_1    0.000
113 H_18662 106.169 73.435 -6.127 H 1 NIL_1    0.000
114 H_18701 114.377 72.985 2.440 H 1 NIL_1    0.000
115 H_18702 114.232 71.615 1.353 H 1 NIL_1    0.000
116 H_18351 110.938 73.042 0.968 H 1 NIL_1    0.000
117 H_18352 111.751 71.568 0.486 H 1 NIL_1    0.000
118 H_22711 109.927 87.545 -0.583 H 1 NIL_1    0.000
119 H_22712 108.843 88.585 -1.566 H 1 NIL_1    0.000
120 H_22713 110.334 89.259 -0.861 H 1 NIL_1    0.000
121 H_18151 116.224 73.073 0.937 H 1 NIL_1    0.000
122 H_18152 115.760 73.486 -0.715 H 1 NIL_1    0.000
123 H_18811 109.946 77.078 4.886 H 1 NIL_1    0.000
124 H_18812 111.400 77.841 4.167 H 1 NIL_1    0.000
125 H_18813 111.567 76.427 5.247 H 1 NIL_1    0.000
126 H_18251 110.374 72.637 -3.537 H 1 NIL_1    0.000
127 H_18252 109.530 74.173 -3.273 H 1 NIL_1    0.000
128 H_18781 115.075 77.108 -5.123 H 1 NIL_1    0.000
129 H_18782 113.736 78.284 -5.002 H 1 NIL_1    0.000
130 H_18783 113.654 76.728 -4.117 H 1 NIL_1    0.000
131 HP 114.924 74.811 1.866 H 1 NIL_1    0.000
132 H_18131 117.313 76.467 1.389 H 1 NIL_1    0.000
133 H_18132 117.298 76.887 -0.341 H 1 NIL_1    0.000
134 H_18271 108.021 71.418 -0.948 H 1 NIL_1    0.000
135 H_18272 106.853 72.705 -1.222 H 1 NIL_1    0.000
136 H_18791 110.502 77.475 1.956 H 1 NIL_1    0.000
137 H_18792 109.031 76.689 2.605 H 1 NIL_1    0.000
138 HP 109.043 73.018 0.350 H 1 NIL_1    0.000
139 H_2210 108.410 86.509 -2.280 H 1 NIL_1    0.000
140 H_2206 112.071 87.006 -4.299 H 1 NIL_1    0.000
141 H_18761 113.582 79.638 -2.987 H 1 NIL_1    0.000
142 H_18762 114.759 79.367 -1.685 H 1 NIL_1    0.000
143 H_18721 111.087 75.405 0.718 H 1 NIL_1    0.000
144 H_18722 109.765 74.566 1.547 H 1 NIL_1    0.000
145 H_2212 107.953 84.580 -3.592 H 1 NIL_1    0.000
146 H_2204 111.593 85.065 -5.618 H 1 NIL_1    0.000
147 H_18711 112.322 77.664 -2.377 H 1 NIL_1    0.000
148 H_18712 113.698 76.976 -1.603 H 1 NIL_1    0.000
149 H_18291 112.865 76.669 0.904 H 1 NIL_1    0.000
150 H_18292 113.216 78.197 1.674 H 1 NIL_1    0.000
151 H_18401 109.621 77.848 0.208 H 1 NIL_1    0.000
152 H_18402 108.033 77.519 -0.437 H 1 NIL_1    0.000
153 H_18681 108.370 83.246 -5.506 H 1 NIL_1    0.000
154 H_18682 109.760 83.600 -6.542 H 1 NIL_1    0.000
155 HP 109.767 80.057 -0.685 H 1 NIL_1    0.000
156 H_18181 110.813 81.823 -1.652 H 1 NIL_1    0.000
157 H_18182 112.296 80.936 -1.926 H 1 NIL_1    0.000
158 H_18161 109.479 79.014 -4.153 H 1 NIL_1    0.000
159 H_18162 111.190 78.543 -3.987 H 1 NIL_1    0.000
160 HH 118.461 74.162 1.829 H 1 NIL_1    0.000
161 HH 108.997 70.364 -3.074 H 1 NIL_1    0.000
162 HH 112.717 80.538 -4.493 H 1 NIL_1    0.000
@<TRIPOS>BOND
1 1 2 1 
2 3 1 1 
3 4 1 1 
4 5 10 1 
5 5 1 1 
6 5 162 1 
7 6 2 1 
8 7 3 1 
9 7 6 1 
10 7 155 1 
11 8 4 1 
12 9 4 2 
13 10 8 1 
14 11 6 1 
15 12 7 1 
16 13 8 1 
17 13 153 1 
18 13 154 1 
19 14 10 2 
20 15 11 2 
21 16 20 1 
22 16 11 1 
23 16 151 1 
24 16 152 1 
25 17 12 2 
26 18 12 1 
27 19 13 1 
28 20 25 1 
29 21 18 1 
30 21 27 1 
31 21 149 1 
32 21 150 1 
33 22 18 1 
34 22 28 1 
35 22 147 1 
36 22 148 1 
37 23 19 2 
38 23 146 1 
39 24 30 2 
40 24 19 1 
41 24 145 1 
42 25 31 1 
43 26 20 1 
44 26 33 1 
45 26 143 1 
46 26 144 1 
47 27 35 1 
48 28 141 1 
49 28 142 1 
50 29 23 1 
51 29 140 1 
52 30 37 1 
53 30 139 1 
54 31 138 1 
55 32 25 2 
56 33 136 1 
57 33 137 1 
58 34 27 2 
59 36 28 1 
60 37 29 2 
61 38 45 1 
62 38 31 1 
63 38 134 1 
64 38 135 1 
65 39 46 1 
66 39 31 1 
67 39 47 1 
68 40 33 1 
69 41 35 1 
70 41 49 1 
71 41 132 1 
72 41 133 1 
73 42 51 1 
74 42 35 1 
75 42 131 1 
76 43 36 1 
77 43 128 1 
78 43 129 1 
79 43 130 1 
80 44 37 1 
81 45 46 1 
82 46 126 1 
83 46 127 1 
84 48 40 1 
85 48 123 1 
86 48 124 1 
87 48 125 1 
88 50 42 1 
89 50 59 2 
90 51 49 1 
91 52 44 1 
92 52 118 1 
93 52 119 1 
94 52 120 1 
95 53 45 1 
96 54 63 1 
97 54 45 1 
98 54 161 1 
99 55 47 2 
100 56 60 1 
101 56 47 1 
102 56 116 1 
103 56 117 1 
104 57 49 1 
105 58 66 1 
106 58 49 1 
107 58 160 1 
108 60 50 1 
109 61 53 1 
110 62 53 2 
111 63 61 1 
112 64 57 1 
113 65 57 2 
114 66 64 1 
115 67 60 1 
116 67 72 1 
117 67 114 1 
118 67 115 1 
119 68 61 1 
120 68 112 1 
121 68 113 1 
122 69 63 2 
123 70 64 1 
124 70 74 1 
125 71 66 2 
126 73 68 1 
127 73 76 2 
128 73 77 1 
129 74 78 1 
130 75 72 1 
131 77 82 2 
132 79 84 1 
133 79 74 2 
134 79 104 1 
135 80 75 1 
136 81 76 1 
137 82 85 1 
138 83 78 2 
139 84 86 2 
140 84 97 1 
141 85 81 2 
142 86 88 1 
143 86 83 1 
144 87 85 1 
145 89 87 1 
146 89 96 1 
147 90 88 1 
148 91 90 1 
149 92 90 1 
150 93 90 1 
151 94 89 1 
152 95 89 1 
153 98 83 1 
154 99 82 1 
155 100 81 1 
156 101 80 1 
157 102 80 1 
158 103 80 1 
159 105 78 1 
160 106 77 1 
161 107 76 1 
162 108 72 1 
163 109 72 1 
164 110 70 1 
165 111 70 1 
166 121 51 1 
167 122 51 1 
168 156 3 1 
169 157 3 1 
170 158 2 1 
171 159 2 1 
@<TRIPOS>SUBSTRUCTURE
1 NIL_1 1 RESIDUE 1 A NIL 1
