@<TRIPOS>MOLECULE
NIL
162 171 1 0 0
POLYMER
CHARGES


@<TRIPOS>ATOM
1 CQ 93.2706 60.0904 -23.3211 C.3 1 NIL_1    0.000
2 C_1816 92.296 59.213 -22.523 C.3 1 NIL_1    0.000
3 C_1818 94.626 59.899 -22.626 C.3 1 NIL_1    0.000
4 C_1854 92.816 61.534 -23.353 C.2 1 NIL_1    0.000
5 NH 93.284 59.817 -24.749 N.am 1 NIL_1    0.000
6 N 92.870 59.005 -21.187 N.am 1 NIL_1    0.000
7 CP 94.277 59.464 -21.185 C.3 1 NIL_1    0.000
8 N 92.601 61.882 -24.650 N.am 1 NIL_1    0.000
9 O 92.667 62.243 -22.376 O.2 1 NIL_1    0.000
10 C_1856 92.884 60.861 -25.494 C.2 1 NIL_1    0.000
11 C_1841 92.222 58.485 -20.103 C.2 1 NIL_1    0.000
12 C_1838 95.238 58.376 -20.716 C.2 1 NIL_1    0.000
13 C_1868 92.121 63.184 -25.156 C.3 1 NIL_1    0.000
14 O 92.799 60.869 -26.707 O.2 1 NIL_1    0.000
15 O 92.783 58.368 -19.030 O.2 1 NIL_1    0.000
16 C_1840 90.765 58.057 -20.248 C.3 1 NIL_1    0.000
17 O 95.003 57.214 -20.984 O.2 1 NIL_1    0.000
18 N 96.360 58.718 -20.021 N.am 1 NIL_1    0.000
19 C_1869 91.729 64.274 -24.180 C.2 1 NIL_1    0.000
20 N 90.539 56.884 -21.135 N.am 1 NIL_1    0.000
21 C_1829 97.249 57.675 -19.467 C.3 1 NIL_1    0.000
22 C_1871 96.844 60.097 -19.793 C.3 1 NIL_1    0.000
23 C_2204 92.580 65.260 -23.881 C.2 1 NIL_1    0.000
24 C_2212 90.524 64.268 -23.606 C.2 1 NIL_1    0.000
25 C_1843 91.003 55.636 -20.849 C.2 1 NIL_1    0.000
26 C_1872 89.703 57.076 -22.352 C.3 1 NIL_1    0.000
27 C_1830 98.091 56.976 -20.531 C.2 1 NIL_1    0.000
28 C_1876 96.378 60.723 -18.462 C.3 1 NIL_1    0.000
29 C_2206 92.232 66.216 -23.019 C.2 1 NIL_1    0.000
30 C_2210 90.174 65.223 -22.742 C.2 1 NIL_1    0.000
31 AP 90.950 55.178 -19.388 C.3 1 NIL_1    0.000
32 O 91.336 54.880 -21.743 O.2 1 NIL_1    0.000
33 C_1879 88.670 58.233 -22.371 C.3 1 NIL_1    0.000
34 O 98.542 57.600 -21.472 O.2 1 NIL_1    0.000
35 N 98.349 55.646 -20.386 N.am 1 NIL_1    0.000
36 O 97.100 60.127 -17.363 O.3 1 NIL_1    0.000
37 C_2208 91.031 66.210 -22.438 C.2 1 NIL_1    0.000
38 C_1827 89.478 55.044 -18.940 C.3 1 NIL_1    0.000
39 N 91.564 53.845 -19.156 N.am 1 NIL_1    0.000
40 O 87.853 58.239 -21.173 O.3 1 NIL_1    0.000
41 C_1813 99.107 54.846 -21.350 C.3 1 NIL_1    0.000
42 BP 97.691 54.714 -19.447 C.3 1 NIL_1    0.000
43 C_1878 97.183 60.935 -16.170 C.3 1 NIL_1    0.000
44 O 90.753 67.228 -21.559 O.3 1 NIL_1    0.000
45 AQ 89.157 53.548 -19.058 C.3 1 NIL_1    0.000
46 C_1825 90.515 52.850 -18.885 C.3 1 NIL_1    0.000
47 C_1844 92.890 53.551 -19.113 C.2 1 NIL_1    0.000
48 C_1881 86.807 57.250 -21.081 C.3 1 NIL_1    0.000
49 BQ 99.530 53.586 -20.587 C.3 1 NIL_1    0.000
50 C_1833 96.230 54.526 -19.854 C.2 1 NIL_1    0.000
51 C_1815 98.438 53.364 -19.524 C.3 1 NIL_1    0.000
52 C_2271 89.442 67.323 -20.956 C.3 1 NIL_1    0.000
53 C_1846 88.477 53.155 -20.355 C.2 1 NIL_1    0.000
54 NH 88.141 53.101 -18.122 N.am 1 NIL_1    0.000
55 O 93.283 52.410 -18.955 O.2 1 NIL_1    0.000
56 C_1835 93.843 54.719 -19.279 C.3 1 NIL_1    0.000
57 C_1850 99.773 52.402 -21.490 C.2 1 NIL_1    0.000
58 NH 100.858 53.728 -20.013 N.am 1 NIL_1    0.000
59 O 95.946 54.444 -21.036 O.2 1 NIL_1    0.000
60 N 95.255 54.466 -18.902 N.am 1 NIL_1    0.000
61 N 87.294 52.565 -20.053 N.am 1 NIL_1    0.000
62 O 88.919 53.301 -21.478 O.2 1 NIL_1    0.000
63 C_1848 87.080 52.532 -18.716 C.2 1 NIL_1    0.000
64 N 101.078 52.058 -21.382 N.am 1 NIL_1    0.000
65 O 98.945 51.850 -22.190 O.2 1 NIL_1    0.000
66 C_1852 101.741 52.842 -20.499 C.2 1 NIL_1    0.000
67 C_1870 95.477 54.150 -17.461 C.3 1 NIL_1    0.000
68 C_1866 86.428 51.859 -21.021 C.3 1 NIL_1    0.000
69 O 86.118 52.064 -18.140 O.2 1 NIL_1    0.000
70 C_1864 101.702 50.933 -22.096 C.3 1 NIL_1    0.000
71 O 102.913 52.766 -20.187 O.2 1 NIL_1    0.000
72 C_1873 94.546 54.851 -16.439 C.3 1 NIL_1    0.000
73 C_1867 86.059 52.497 -22.349 C.2 1 NIL_1    0.000
74 C_1865 101.882 49.738 -21.180 C.2 1 NIL_1    0.000
75 O 94.596 56.292 -16.586 O.3 1 NIL_1    0.000
76 C_2172 86.008 51.742 -23.451 C.2 1 NIL_1    0.000
77 C_2180 85.743 53.792 -22.448 C.2 1 NIL_1    0.000
78 C_2196 100.822 49.132 -20.634 C.2 1 NIL_1    0.000
79 C_2188 103.103 49.276 -20.895 C.2 1 NIL_1    0.000
80 C_1875 95.792 56.952 -16.117 C.3 1 NIL_1    0.000
81 C_2174 85.659 52.269 -24.625 C.2 1 NIL_1    0.000
82 C_2178 85.397 54.324 -23.623 C.2 1 NIL_1    0.000
83 C_2194 100.979 48.088 -19.819 C.2 1 NIL_1    0.000
84 C_2190 103.263 48.229 -20.084 C.2 1 NIL_1    0.000
85 C_2176 85.357 53.564 -24.726 C.2 1 NIL_1    0.000
86 C_2192 102.203 47.625 -19.543 C.2 1 NIL_1    0.000
87 O 84.993 54.036 -25.961 O.3 1 NIL_1    0.000
88 O 102.407 46.557 -18.716 O.3 1 NIL_1    0.000
89 C_2273 85.290 55.412 -26.294 C.3 1 NIL_1    0.000
90 C_2269 101.666 45.358 -19.042 C.3 1 NIL_1    0.000
91 H_22691 101.846 45.095 -20.088 H 1 NIL_1    0.000
92 H_22692 100.598 45.523 -18.877 H 1 NIL_1    0.000
93 H_22693 102.011 44.546 -18.398 H 1 NIL_1    0.000
94 H_22731 84.700 56.084 -25.666 H 1 NIL_1    0.000
95 H_22732 85.027 55.579 -27.341 H 1 NIL_1    0.000
96 H_22733 86.358 55.598 -26.152 H 1 NIL_1    0.000
97 H_2190 104.264 47.863 -19.871 H 1 NIL_1    0.000
98 H_2194 100.099 47.624 -19.380 H 1 NIL_1    0.000
99 H_2178 85.137 55.378 -23.659 H 1 NIL_1    0.000
100 H_2174 85.620 51.632 -25.506 H 1 NIL_1    0.000
101 H_18751 96.662 56.574 -16.659 H 1 NIL_1    0.000
102 H_18752 95.909 56.769 -15.046 H 1 NIL_1    0.000
103 H_18753 95.691 58.025 -16.295 H 1 NIL_1    0.000
104 H_2188 103.980 49.752 -21.327 H 1 NIL_1    0.000
105 H_2196 99.818 49.493 -20.847 H 1 NIL_1    0.000
106 H_2180 85.755 54.424 -21.563 H 1 NIL_1    0.000
107 H_2172 86.243 50.681 -23.397 H 1 NIL_1    0.000
108 H_18731 93.513 54.528 -16.594 H 1 NIL_1    0.000
109 H_18732 94.835 54.583 -15.420 H 1 NIL_1    0.000
110 H_18641 102.667 51.267 -22.486 H 1 NIL_1    0.000
111 H_18642 101.080 50.650 -22.950 H 1 NIL_1    0.000
112 H_18661 85.490 51.610 -20.518 H 1 NIL_1    0.000
113 H_18662 86.928 50.909 -21.227 H 1 NIL_1    0.000
114 H_18701 96.501 54.369 -17.164 H 1 NIL_1    0.000
115 H_18702 95.351 53.071 -17.341 H 1 NIL_1    0.000
116 H_18351 93.766 55.020 -20.325 H 1 NIL_1    0.000
117 H_18352 93.470 55.550 -18.683 H 1 NIL_1    0.000
118 H_22711 88.683 67.416 -21.739 H 1 NIL_1    0.000
119 H_22712 89.418 68.213 -20.320 H 1 NIL_1    0.000
120 H_22713 89.251 66.436 -20.345 H 1 NIL_1    0.000
121 H_18151 98.865 53.094 -18.554 H 1 NIL_1    0.000
122 H_18152 97.757 52.560 -19.824 H 1 NIL_1    0.000
123 H_18811 86.339 57.329 -20.095 H 1 NIL_1    0.000
124 H_18812 87.231 56.251 -21.207 H 1 NIL_1    0.000
125 H_18813 86.059 57.440 -21.857 H 1 NIL_1    0.000
126 H_18251 90.634 52.503 -17.856 H 1 NIL_1    0.000
127 H_18252 90.614 51.998 -19.566 H 1 NIL_1    0.000
128 H_18781 97.590 60.326 -15.360 H 1 NIL_1    0.000
129 H_18782 96.190 61.299 -15.893 H 1 NIL_1    0.000
130 H_18783 97.849 61.783 -16.358 H 1 NIL_1    0.000
131 HP 97.773 55.134 -18.444 H 1 NIL_1    0.000
132 H_18131 99.970 55.391 -21.743 H 1 NIL_1    0.000
133 H_18132 98.436 54.580 -22.173 H 1 NIL_1    0.000
134 H_18271 89.408 55.346 -17.893 H 1 NIL_1    0.000
135 H_18272 88.783 55.661 -19.515 H 1 NIL_1    0.000
136 H_18791 89.188 59.192 -22.427 H 1 NIL_1    0.000
137 H_18792 88.027 58.149 -23.251 H 1 NIL_1    0.000
138 HP 91.440 55.929 -18.766 H 1 NIL_1    0.000
139 H_2210 89.184 65.171 -22.299 H 1 NIL_1    0.000
140 H_2206 92.941 67.008 -22.789 H 1 NIL_1    0.000
141 H_18761 96.594 61.794 -18.483 H 1 NIL_1    0.000
142 H_18762 95.306 60.574 -18.306 H 1 NIL_1    0.000
143 H_18721 89.142 56.149 -22.501 H 1 NIL_1    0.000
144 H_18722 90.364 57.183 -23.215 H 1 NIL_1    0.000
145 H_2212 89.816 63.476 -23.840 H 1 NIL_1    0.000
146 H_2204 93.565 65.287 -24.340 H 1 NIL_1    0.000
147 H_18711 96.511 60.738 -20.611 H 1 NIL_1    0.000
148 H_18712 97.938 60.102 -19.817 H 1 NIL_1    0.000
149 H_18291 96.618 56.949 -18.954 H 1 NIL_1    0.000
150 H_18292 97.939 58.094 -18.731 H 1 NIL_1    0.000
151 H_18401 90.385 57.833 -19.249 H 1 NIL_1    0.000
152 H_18402 90.243 58.945 -20.597 H 1 NIL_1    0.000
153 H_18681 91.253 62.977 -25.787 H 1 NIL_1    0.000
154 H_18682 92.901 63.575 -25.816 H 1 NIL_1    0.000
155 HP 94.344 60.321 -20.512 H 1 NIL_1    0.000
156 H_18181 95.243 60.800 -22.649 H 1 NIL_1    0.000
157 H_18182 95.176 59.099 -23.131 H 1 NIL_1    0.000
158 H_18161 91.314 59.689 -22.452 H 1 NIL_1    0.000
159 H_18162 92.210 58.241 -23.010 H 1 NIL_1    0.000
160 HH 101.078 54.430 -19.323 H 1 NIL_1    0.000
161 HH 88.242 53.208 -17.124 H 1 NIL_1    0.000
162 HH 93.569 58.929 -25.133 H 1 NIL_1    0.000
@<TRIPOS>BOND
1 1 2 1 
2 3 1 1 
3 4 1 1 
4 5 10 1 
5 5 1 1 
6 5 162 1 
7 6 2 1 
8 7 3 1 
9 7 6 1 
10 7 155 1 
11 8 4 1 
12 9 4 2 
13 10 8 1 
14 11 6 1 
15 12 7 1 
16 13 8 1 
17 13 153 1 
18 13 154 1 
19 14 10 2 
20 15 11 2 
21 16 20 1 
22 16 11 1 
23 16 151 1 
24 16 152 1 
25 17 12 2 
26 18 12 1 
27 19 13 1 
28 20 25 1 
29 21 18 1 
30 21 27 1 
31 21 149 1 
32 21 150 1 
33 22 18 1 
34 22 28 1 
35 22 147 1 
36 22 148 1 
37 23 19 2 
38 23 146 1 
39 24 30 2 
40 24 19 1 
41 24 145 1 
42 25 31 1 
43 26 20 1 
44 26 33 1 
45 26 143 1 
46 26 144 1 
47 27 35 1 
48 28 141 1 
49 28 142 1 
50 29 23 1 
51 29 140 1 
52 30 37 1 
53 30 139 1 
54 31 138 1 
55 32 25 2 
56 33 136 1 
57 33 137 1 
58 34 27 2 
59 36 28 1 
60 37 29 2 
61 38 45 1 
62 38 31 1 
63 38 134 1 
64 38 135 1 
65 39 46 1 
66 39 31 1 
67 39 47 1 
68 40 33 1 
69 41 35 1 
70 41 49 1 
71 41 132 1 
72 41 133 1 
73 42 51 1 
74 42 35 1 
75 42 131 1 
76 43 36 1 
77 43 128 1 
78 43 129 1 
79 43 130 1 
80 44 37 1 
81 45 46 1 
82 46 126 1 
83 46 127 1 
84 48 40 1 
85 48 123 1 
86 48 124 1 
87 48 125 1 
88 50 42 1 
89 50 59 2 
90 51 49 1 
91 52 44 1 
92 52 118 1 
93 52 119 1 
94 52 120 1 
95 53 45 1 
96 54 63 1 
97 54 45 1 
98 54 161 1 
99 55 47 2 
100 56 60 1 
101 56 47 1 
102 56 116 1 
103 56 117 1 
104 57 49 1 
105 58 66 1 
106 58 49 1 
107 58 160 1 
108 60 50 1 
109 61 53 1 
110 62 53 2 
111 63 61 1 
112 64 57 1 
113 65 57 2 
114 66 64 1 
115 67 60 1 
116 67 72 1 
117 67 114 1 
118 67 115 1 
119 68 61 1 
120 68 112 1 
121 68 113 1 
122 69 63 2 
123 70 64 1 
124 70 74 1 
125 71 66 2 
126 73 68 1 
127 73 76 2 
128 73 77 1 
129 74 78 1 
130 75 72 1 
131 77 82 2 
132 79 84 1 
133 79 74 2 
134 79 104 1 
135 80 75 1 
136 81 76 1 
137 82 85 1 
138 83 78 2 
139 84 86 2 
140 84 97 1 
141 85 81 2 
142 86 88 1 
143 86 83 1 
144 87 85 1 
145 89 87 1 
146 89 96 1 
147 90 88 1 
148 91 90 1 
149 92 90 1 
150 93 90 1 
151 94 89 1 
152 95 89 1 
153 98 83 1 
154 99 82 1 
155 100 81 1 
156 101 80 1 
157 102 80 1 
158 103 80 1 
159 105 78 1 
160 106 77 1 
161 107 76 1 
162 108 72 1 
163 109 72 1 
164 110 70 1 
165 111 70 1 
166 121 51 1 
167 122 51 1 
168 156 3 1 
169 157 3 1 
170 158 2 1 
171 159 2 1 
@<TRIPOS>SUBSTRUCTURE
1 NIL_1 1 RESIDUE 1 A NIL 1
