@<TRIPOS>MOLECULE
NIL
162 171 1 0 0
POLYMER
CHARGES


@<TRIPOS>ATOM
1 CQ 102.632 72.9995 -10.6464 C.3 1 NIL_1    0.000
2 C_1816 102.090 71.727 -11.338 C.3 1 NIL_1    0.000
3 C_1818 103.755 72.514 -9.705 C.3 1 NIL_1    0.000
4 C_1854 101.598 73.780 -9.868 C.2 1 NIL_1    0.000
5 NH 103.077 74.042 -11.556 N.am 1 NIL_1    0.000
6 N 102.672 70.600 -10.587 N.am 1 NIL_1    0.000
7 CP 103.989 71.053 -10.120 C.3 1 NIL_1    0.000
8 N 101.680 75.077 -10.248 N.am 1 NIL_1    0.000
9 O 100.845 73.331 -9.025 O.2 1 NIL_1    0.000
10 C_1856 102.576 75.251 -11.250 C.2 1 NIL_1    0.000
11 C_1841 101.959 69.615 -9.983 C.2 1 NIL_1    0.000
12 C_1838 105.084 70.892 -11.183 C.2 1 NIL_1    0.000
13 C_1868 100.982 76.182 -9.563 C.3 1 NIL_1    0.000
14 O 102.895 76.298 -11.778 O.2 1 NIL_1    0.000
15 O 102.394 69.011 -9.019 O.2 1 NIL_1    0.000
16 C_1840 100.611 69.262 -10.592 C.3 1 NIL_1    0.000
17 O 105.501 71.859 -11.794 O.2 1 NIL_1    0.000
18 N 105.569 69.642 -11.464 N.am 1 NIL_1    0.000
19 C_1869 100.255 77.144 -10.483 C.2 1 NIL_1    0.000
20 N 100.217 67.874 -10.274 N.am 1 NIL_1    0.000
21 C_1829 105.131 68.362 -10.861 C.3 1 NIL_1    0.000
22 C_1871 106.637 69.422 -12.461 C.3 1 NIL_1    0.000
23 C_2204 99.218 76.739 -11.222 C.2 1 NIL_1    0.000
24 C_2212 100.648 78.418 -10.575 C.2 1 NIL_1    0.000
25 C_1843 100.916 66.836 -10.820 C.2 1 NIL_1    0.000
26 C_1872 99.212 67.790 -9.187 C.3 1 NIL_1    0.000
27 C_1830 105.676 68.104 -9.462 C.2 1 NIL_1    0.000
28 C_1876 106.101 69.048 -13.860 C.3 1 NIL_1    0.000
29 C_2206 98.598 77.587 -12.043 C.2 1 NIL_1    0.000
30 C_2210 100.029 79.269 -11.395 C.2 1 NIL_1    0.000
31 AP 100.602 65.399 -10.408 C.3 1 NIL_1    0.000
32 O 101.772 67.047 -11.660 O.2 1 NIL_1    0.000
33 C_1879 97.779 67.483 -9.676 C.3 1 NIL_1    0.000
34 O 106.032 69.011 -8.733 O.2 1 NIL_1    0.000
35 N 105.717 66.808 -9.048 N.am 1 NIL_1    0.000
36 O 105.260 70.109 -14.374 O.3 1 NIL_1    0.000
37 C_2208 98.995 78.859 -12.145 C.2 1 NIL_1    0.000
38 C_1827 99.470 64.829 -11.293 C.3 1 NIL_1    0.000
39 N 101.783 64.527 -10.600 N.am 1 NIL_1    0.000
40 O 97.363 68.405 -10.714 O.3 1 NIL_1    0.000
41 C_1813 106.571 65.850 -9.779 C.3 1 NIL_1    0.000
42 BP 105.874 66.485 -7.614 C.3 1 NIL_1    0.000
43 C_1878 103.838 69.864 -14.333 C.3 1 NIL_1    0.000
44 O 98.311 79.660 -13.025 O.3 1 NIL_1    0.000
45 AQ 100.089 63.641 -12.051 C.3 1 NIL_1    0.000
46 C_1825 101.600 63.757 -11.833 C.3 1 NIL_1    0.000
47 C_1844 102.937 64.516 -9.879 C.2 1 NIL_1    0.000
48 C_1881 96.997 69.739 -10.295 C.3 1 NIL_1    0.000
49 BQ 107.701 65.436 -8.812 C.3 1 NIL_1    0.000
50 C_1833 105.034 65.345 -7.007 C.2 1 NIL_1    0.000
51 C_1815 107.382 66.174 -7.499 C.3 1 NIL_1    0.000
52 C_2271 98.717 81.037 -13.215 C.3 1 NIL_1    0.000
53 C_1846 99.721 63.585 -13.514 C.2 1 NIL_1    0.000
54 NH 99.565 62.351 -11.625 N.am 1 NIL_1    0.000
55 O 103.857 63.790 -10.207 O.2 1 NIL_1    0.000
56 C_1835 103.043 65.407 -8.643 C.3 1 NIL_1    0.000
57 C_1850 107.796 63.939 -8.612 C.2 1 NIL_1    0.000
58 NH 109.051 65.693 -9.292 N.am 1 NIL_1    0.000
59 O 105.419 64.869 -5.955 O.2 1 NIL_1    0.000
60 N 103.903 64.823 -7.582 N.am 1 NIL_1    0.000
61 N 99.115 62.398 -13.748 N.am 1 NIL_1    0.000
62 O 99.936 64.450 -14.342 O.2 1 NIL_1    0.000
63 C_1848 99.029 61.639 -12.630 C.2 1 NIL_1    0.000
64 N 109.073 63.564 -8.862 N.am 1 NIL_1    0.000
65 O 106.897 63.194 -8.273 O.2 1 NIL_1    0.000
66 C_1852 109.837 64.603 -9.272 C.2 1 NIL_1    0.000
67 C_1870 103.332 63.543 -7.081 C.3 1 NIL_1    0.000
68 C_1866 98.578 61.987 -15.054 C.3 1 NIL_1    0.000
69 O 98.553 60.525 -12.535 O.2 1 NIL_1    0.000
70 C_1864 109.585 62.198 -8.644 C.3 1 NIL_1    0.000
71 O 111.016 64.576 -9.565 O.2 1 NIL_1    0.000
72 C_1873 102.628 63.616 -5.707 C.3 1 NIL_1    0.000
73 C_1867 97.076 61.785 -14.993 C.2 1 NIL_1    0.000
74 C_1865 109.781 61.750 -7.202 C.2 1 NIL_1    0.000
75 O 101.547 64.574 -5.741 O.3 1 NIL_1    0.000
76 C_2172 96.545 60.586 -15.244 C.2 1 NIL_1    0.000
77 C_2180 96.261 62.795 -14.674 C.2 1 NIL_1    0.000
78 C_2196 110.149 60.487 -6.958 C.2 1 NIL_1    0.000
79 C_2188 109.603 62.569 -6.156 C.2 1 NIL_1    0.000
80 C_1875 101.835 65.859 -5.144 C.3 1 NIL_1    0.000
81 C_2174 95.226 60.401 -15.181 C.2 1 NIL_1    0.000
82 C_2178 94.941 62.612 -14.609 C.2 1 NIL_1    0.000
83 C_2194 110.329 60.049 -5.711 C.2 1 NIL_1    0.000
84 C_2190 109.778 62.133 -4.909 C.2 1 NIL_1    0.000
85 C_2176 94.407 61.408 -14.865 C.2 1 NIL_1    0.000
86 C_2192 110.141 60.870 -4.667 C.2 1 NIL_1    0.000
87 O 93.061 61.139 -14.825 O.3 1 NIL_1    0.000
88 O 110.297 60.501 -3.354 O.3 1 NIL_1    0.000
89 C_2273 92.135 62.174 -14.413 C.3 1 NIL_1    0.000
90 C_2269 110.673 59.140 -3.029 C.3 1 NIL_1    0.000
91 H_22691 109.925 58.448 -3.424 H 1 NIL_1    0.000
92 H_22692 110.717 59.041 -1.941 H 1 NIL_1    0.000
93 H_22693 111.656 58.920 -3.453 H 1 NIL_1    0.000
94 H_22731 92.364 62.482 -13.389 H 1 NIL_1    0.000
95 H_22732 91.119 61.774 -14.454 H 1 NIL_1    0.000
96 H_22733 92.213 63.029 -15.091 H 1 NIL_1    0.000
97 H_2190 109.623 62.819 -4.079 H 1 NIL_1    0.000
98 H_2194 110.629 59.014 -5.572 H 1 NIL_1    0.000
99 H_2178 94.321 63.463 -14.343 H 1 NIL_1    0.000
100 H_2174 94.820 59.413 -15.387 H 1 NIL_1    0.000
101 H_18751 102.037 65.716 -4.079 H 1 NIL_1    0.000
102 H_18752 100.966 66.509 -5.271 H 1 NIL_1    0.000
103 H_18753 102.704 66.310 -5.629 H 1 NIL_1    0.000
104 H_2188 109.310 63.605 -6.302 H 1 NIL_1    0.000
105 H_2196 110.308 59.802 -7.788 H 1 NIL_1    0.000
106 H_2180 96.671 63.779 -14.458 H 1 NIL_1    0.000
107 H_2172 97.191 59.749 -15.498 H 1 NIL_1    0.000
108 H_18731 102.206 62.633 -5.483 H 1 NIL_1    0.000
109 H_18732 103.333 63.873 -4.912 H 1 NIL_1    0.000
110 H_18641 110.542 62.101 -9.165 H 1 NIL_1    0.000
111 H_18642 108.892 61.507 -9.131 H 1 NIL_1    0.000
112 H_18661 99.075 61.058 -15.348 H 1 NIL_1    0.000
113 H_18662 98.811 62.745 -15.806 H 1 NIL_1    0.000
114 H_18701 104.137 62.804 -7.028 H 1 NIL_1    0.000
115 H_18702 102.595 63.156 -7.788 H 1 NIL_1    0.000
116 H_18351 103.366 66.393 -8.963 H 1 NIL_1    0.000
117 H_18352 102.043 65.525 -8.219 H 1 NIL_1    0.000
118 H_22711 99.762 81.072 -13.535 H 1 NIL_1    0.000
119 H_22712 98.586 81.589 -12.280 H 1 NIL_1    0.000
120 H_22713 98.087 81.482 -13.990 H 1 NIL_1    0.000
121 H_18151 107.930 67.119 -7.464 H 1 NIL_1    0.000
122 H_18152 107.662 65.600 -6.612 H 1 NIL_1    0.000
123 H_18811 97.844 70.224 -9.808 H 1 NIL_1    0.000
124 H_18812 96.155 69.689 -9.600 H 1 NIL_1    0.000
125 H_18813 96.708 70.311 -11.180 H 1 NIL_1    0.000
126 H_18251 102.067 62.769 -11.762 H 1 NIL_1    0.000
127 H_18252 102.056 64.315 -12.655 H 1 NIL_1    0.000
128 H_18781 103.315 70.778 -14.628 H 1 NIL_1    0.000
129 H_18782 103.537 69.578 -13.323 H 1 NIL_1    0.000
130 H_18783 103.594 69.061 -15.032 H 1 NIL_1    0.000
131 HP 105.633 67.360 -7.007 H 1 NIL_1    0.000
132 H_18131 106.998 66.314 -10.673 H 1 NIL_1    0.000
133 H_18132 105.981 64.984 -10.077 H 1 NIL_1    0.000
134 H_18271 98.636 64.494 -10.672 H 1 NIL_1    0.000
135 H_18272 99.090 65.584 -11.986 H 1 NIL_1    0.000
136 H_18791 97.747 66.477 -10.092 H 1 NIL_1    0.000
137 H_18792 97.075 67.532 -8.840 H 1 NIL_1    0.000
138 HP 100.298 65.366 -9.361 H 1 NIL_1    0.000
139 H_2210 100.392 80.293 -11.437 H 1 NIL_1    0.000
140 H_2206 97.761 77.235 -12.642 H 1 NIL_1    0.000
141 H_18761 106.947 68.930 -14.542 H 1 NIL_1    0.000
142 H_18762 105.543 68.106 -13.826 H 1 NIL_1    0.000
143 H_18721 99.191 68.736 -8.639 H 1 NIL_1    0.000
144 H_18722 99.516 67.031 -8.464 H 1 NIL_1    0.000
145 H_2212 101.487 78.771 -9.980 H 1 NIL_1    0.000
146 H_2204 98.876 75.708 -11.162 H 1 NIL_1    0.000
147 H_18711 107.289 68.618 -12.105 H 1 NIL_1    0.000
148 H_18712 107.258 70.318 -12.546 H 1 NIL_1    0.000
149 H_18291 105.422 67.530 -11.508 H 1 NIL_1    0.000
150 H_18292 104.046 68.334 -10.802 H 1 NIL_1    0.000
151 H_18401 99.881 69.986 -10.228 H 1 NIL_1    0.000
152 H_18402 100.684 69.368 -11.680 H 1 NIL_1    0.000
153 H_18681 101.732 76.729 -8.986 H 1 NIL_1    0.000
154 H_18682 100.265 75.770 -8.849 H 1 NIL_1    0.000
155 HP 104.299 70.507 -9.232 H 1 NIL_1    0.000
156 H_18181 103.409 72.525 -8.667 H 1 NIL_1    0.000
157 H_18182 104.658 73.128 -9.754 H 1 NIL_1    0.000
158 H_18161 100.998 71.711 -11.332 H 1 NIL_1    0.000
159 H_18162 102.446 71.674 -12.372 H 1 NIL_1    0.000
160 HH 109.369 66.613 -9.558 H 1 NIL_1    0.000
161 HH 99.618 62.028 -10.670 H 1 NIL_1    0.000
162 HH 103.772 73.881 -12.270 H 1 NIL_1    0.000
@<TRIPOS>BOND
1 1 2 1 
2 3 1 1 
3 4 1 1 
4 5 10 1 
5 5 1 1 
6 5 162 1 
7 6 2 1 
8 7 3 1 
9 7 6 1 
10 7 155 1 
11 8 4 1 
12 9 4 2 
13 10 8 1 
14 11 6 1 
15 12 7 1 
16 13 8 1 
17 13 153 1 
18 13 154 1 
19 14 10 2 
20 15 11 2 
21 16 20 1 
22 16 11 1 
23 16 151 1 
24 16 152 1 
25 17 12 2 
26 18 12 1 
27 19 13 1 
28 20 25 1 
29 21 18 1 
30 21 27 1 
31 21 149 1 
32 21 150 1 
33 22 18 1 
34 22 28 1 
35 22 147 1 
36 22 148 1 
37 23 19 2 
38 23 146 1 
39 24 30 2 
40 24 19 1 
41 24 145 1 
42 25 31 1 
43 26 20 1 
44 26 33 1 
45 26 143 1 
46 26 144 1 
47 27 35 1 
48 28 141 1 
49 28 142 1 
50 29 23 1 
51 29 140 1 
52 30 37 1 
53 30 139 1 
54 31 138 1 
55 32 25 2 
56 33 136 1 
57 33 137 1 
58 34 27 2 
59 36 28 1 
60 37 29 2 
61 38 45 1 
62 38 31 1 
63 38 134 1 
64 38 135 1 
65 39 46 1 
66 39 31 1 
67 39 47 1 
68 40 33 1 
69 41 35 1 
70 41 49 1 
71 41 132 1 
72 41 133 1 
73 42 51 1 
74 42 35 1 
75 42 131 1 
76 43 36 1 
77 43 128 1 
78 43 129 1 
79 43 130 1 
80 44 37 1 
81 45 46 1 
82 46 126 1 
83 46 127 1 
84 48 40 1 
85 48 123 1 
86 48 124 1 
87 48 125 1 
88 50 42 1 
89 50 59 2 
90 51 49 1 
91 52 44 1 
92 52 118 1 
93 52 119 1 
94 52 120 1 
95 53 45 1 
96 54 63 1 
97 54 45 1 
98 54 161 1 
99 55 47 2 
100 56 60 1 
101 56 47 1 
102 56 116 1 
103 56 117 1 
104 57 49 1 
105 58 66 1 
106 58 49 1 
107 58 160 1 
108 60 50 1 
109 61 53 1 
110 62 53 2 
111 63 61 1 
112 64 57 1 
113 65 57 2 
114 66 64 1 
115 67 60 1 
116 67 72 1 
117 67 114 1 
118 67 115 1 
119 68 61 1 
120 68 112 1 
121 68 113 1 
122 69 63 2 
123 70 64 1 
124 70 74 1 
125 71 66 2 
126 73 68 1 
127 73 76 2 
128 73 77 1 
129 74 78 1 
130 75 72 1 
131 77 82 2 
132 79 84 1 
133 79 74 2 
134 79 104 1 
135 80 75 1 
136 81 76 1 
137 82 85 1 
138 83 78 2 
139 84 86 2 
140 84 97 1 
141 85 81 2 
142 86 88 1 
143 86 83 1 
144 87 85 1 
145 89 87 1 
146 89 96 1 
147 90 88 1 
148 91 90 1 
149 92 90 1 
150 93 90 1 
151 94 89 1 
152 95 89 1 
153 98 83 1 
154 99 82 1 
155 100 81 1 
156 101 80 1 
157 102 80 1 
158 103 80 1 
159 105 78 1 
160 106 77 1 
161 107 76 1 
162 108 72 1 
163 109 72 1 
164 110 70 1 
165 111 70 1 
166 121 51 1 
167 122 51 1 
168 156 3 1 
169 157 3 1 
170 158 2 1 
171 159 2 1 
@<TRIPOS>SUBSTRUCTURE
1 NIL_1 1 RESIDUE 1 A NIL 1
