@<TRIPOS>MOLECULE
NIL
162 171 1 0 0
POLYMER
CHARGES


@<TRIPOS>ATOM
1 CQ 88.8234 55.3215 -32.5976 C.3 1 NIL_1    0.000
2 C_1816 87.748 54.261 -32.866 C.3 1 NIL_1    0.000
3 C_1818 89.612 54.768 -31.410 C.3 1 NIL_1    0.000
4 C_1854 88.202 56.662 -32.285 C.2 1 NIL_1    0.000
5 NH 89.626 55.688 -33.752 N.am 1 NIL_1    0.000
6 N 87.521 53.557 -31.594 N.am 1 NIL_1    0.000
7 CP 88.572 53.948 -30.617 C.3 1 NIL_1    0.000
8 N 88.659 57.555 -33.193 N.am 1 NIL_1    0.000
9 O 87.421 56.899 -31.383 O.2 1 NIL_1    0.000
10 C_1856 89.525 56.990 -34.070 C.2 1 NIL_1    0.000
11 C_1841 86.408 52.810 -31.363 C.2 1 NIL_1    0.000
12 C_1838 89.291 52.802 -29.906 C.2 1 NIL_1    0.000
13 C_1868 88.247 58.966 -33.239 C.3 1 NIL_1    0.000
14 O 90.112 57.540 -34.981 O.2 1 NIL_1    0.000
15 O 85.549 52.684 -32.216 O.2 1 NIL_1    0.000
16 C_1840 86.278 52.165 -29.994 C.3 1 NIL_1    0.000
17 O 89.531 51.774 -30.514 O.2 1 NIL_1    0.000
18 N 89.703 52.965 -28.609 N.am 1 NIL_1    0.000
19 C_1869 87.565 59.297 -34.551 C.2 1 NIL_1    0.000
20 N 85.032 51.406 -29.751 N.am 1 NIL_1    0.000
21 C_1829 90.522 51.926 -27.944 C.3 1 NIL_1    0.000
22 C_1871 89.487 54.172 -27.770 C.3 1 NIL_1    0.000
23 C_2204 88.184 60.052 -35.462 C.2 1 NIL_1    0.000
24 C_2212 86.345 58.826 -34.828 C.2 1 NIL_1    0.000
25 C_1843 84.795 50.224 -30.400 C.2 1 NIL_1    0.000
26 C_1872 84.263 51.943 -28.604 C.3 1 NIL_1    0.000
27 C_1830 89.712 50.709 -27.516 C.2 1 NIL_1    0.000
28 C_1876 88.176 54.150 -26.949 C.3 1 NIL_1    0.000
29 C_2206 87.600 60.333 -36.626 C.2 1 NIL_1    0.000
30 C_2210 85.759 59.106 -35.993 C.2 1 NIL_1    0.000
31 AP 83.698 49.289 -29.896 C.3 1 NIL_1    0.000
32 O 85.473 49.886 -31.353 O.2 1 NIL_1    0.000
33 C_1879 83.007 52.715 -29.047 C.3 1 NIL_1    0.000
34 O 88.521 50.801 -27.288 O.2 1 NIL_1    0.000
35 N 90.366 49.518 -27.401 N.am 1 NIL_1    0.000
36 O 88.301 53.254 -25.819 O.3 1 NIL_1    0.000
37 C_2208 86.375 59.863 -36.906 C.2 1 NIL_1    0.000
38 C_1827 82.514 49.287 -30.882 C.3 1 NIL_1    0.000
39 N 84.136 47.876 -29.741 N.am 1 NIL_1    0.000
40 O 83.408 53.845 -29.852 O.3 1 NIL_1    0.000
41 C_1813 91.792 49.294 -27.671 C.3 1 NIL_1    0.000
42 BP 89.698 48.225 -27.156 C.3 1 NIL_1    0.000
43 C_1878 87.095 53.073 -25.040 C.3 1 NIL_1    0.000
44 O 85.714 60.104 -38.085 O.3 1 NIL_1    0.000
45 AQ 81.932 47.886 -30.701 C.3 1 NIL_1    0.000
46 C_1825 83.157 47.008 -30.410 C.3 1 NIL_1    0.000
47 C_1844 85.221 47.401 -29.062 C.2 1 NIL_1    0.000
48 C_1881 82.327 54.680 -30.313 C.3 1 NIL_1    0.000
49 BQ 92.103 47.813 -27.401 C.3 1 NIL_1    0.000
50 C_1833 88.527 48.051 -28.120 C.2 1 NIL_1    0.000
51 C_1815 90.741 47.099 -27.304 C.3 1 NIL_1    0.000
52 C_2271 86.197 61.142 -38.973 C.3 1 NIL_1    0.000
53 C_1846 81.097 47.404 -31.860 C.2 1 NIL_1    0.000
54 NH 80.935 47.837 -29.643 N.am 1 NIL_1    0.000
55 O 85.462 46.211 -29.017 O.2 1 NIL_1    0.000
56 C_1835 86.107 48.423 -28.364 C.3 1 NIL_1    0.000
57 C_1850 92.999 47.220 -28.464 C.2 1 NIL_1    0.000
58 NH 92.953 47.607 -26.238 N.am 1 NIL_1    0.000
59 O 88.711 48.147 -29.321 O.2 1 NIL_1    0.000
60 N 87.269 47.901 -27.619 N.am 1 NIL_1    0.000
61 N 79.851 47.150 -31.395 N.am 1 NIL_1    0.000
62 O 81.477 47.248 -33.005 O.2 1 NIL_1    0.000
63 C_1848 79.736 47.412 -30.070 C.2 1 NIL_1    0.000
64 N 94.136 46.790 -27.869 N.am 1 NIL_1    0.000
65 O 92.748 47.142 -29.652 O.2 1 NIL_1    0.000
66 C_1852 94.123 47.015 -26.534 C.2 1 NIL_1    0.000
67 C_1870 86.944 47.335 -26.294 C.3 1 NIL_1    0.000
68 C_1866 78.780 46.537 -32.198 C.3 1 NIL_1    0.000
69 O 78.745 47.276 -29.380 O.2 1 NIL_1    0.000
70 C_1864 95.260 46.183 -28.604 C.3 1 NIL_1    0.000
71 O 94.998 46.743 -25.737 O.2 1 NIL_1    0.000
72 C_1873 86.773 48.359 -25.144 C.3 1 NIL_1    0.000
73 C_1867 78.482 45.130 -31.712 C.2 1 NIL_1    0.000
74 C_1865 94.901 44.891 -29.315 C.2 1 NIL_1    0.000
75 O 85.575 49.164 -25.279 O.3 1 NIL_1    0.000
76 C_2172 79.464 44.232 -31.571 C.2 1 NIL_1    0.000
77 C_2180 77.234 44.767 -31.403 C.2 1 NIL_1    0.000
78 C_2196 94.441 43.838 -28.632 C.2 1 NIL_1    0.000
79 C_2188 95.047 44.780 -30.639 C.2 1 NIL_1    0.000
80 C_1875 84.307 48.478 -25.164 C.3 1 NIL_1    0.000
81 C_2174 79.209 43.004 -31.118 C.2 1 NIL_1    0.000
82 C_2178 76.974 43.536 -30.955 C.2 1 NIL_1    0.000
83 C_2194 94.133 42.699 -29.255 C.2 1 NIL_1    0.000
84 C_2190 94.741 43.643 -31.264 C.2 1 NIL_1    0.000
85 C_2176 77.957 42.645 -30.798 C.2 1 NIL_1    0.000
86 C_2192 94.281 42.589 -30.584 C.2 1 NIL_1    0.000
87 O 77.625 41.398 -30.332 O.3 1 NIL_1    0.000
88 O 93.994 41.455 -31.303 O.3 1 NIL_1    0.000
89 C_2273 78.605 40.662 -29.557 C.3 1 NIL_1    0.000
90 C_2269 93.451 40.289 -30.638 C.3 1 NIL_1    0.000
91 H_22691 92.497 40.543 -30.166 H 1 NIL_1    0.000
92 H_22692 94.159 39.928 -29.888 H 1 NIL_1    0.000
93 H_22693 93.287 39.508 -31.384 H 1 NIL_1    0.000
94 H_22731 78.136 39.751 -29.174 H 1 NIL_1    0.000
95 H_22732 78.943 41.277 -28.719 H 1 NIL_1    0.000
96 H_22733 79.452 40.385 -30.190 H 1 NIL_1    0.000
97 H_2190 94.872 43.575 -32.342 H 1 NIL_1    0.000
98 H_2194 93.765 41.872 -28.654 H 1 NIL_1    0.000
99 H_2178 75.950 43.262 -30.710 H 1 NIL_1    0.000
100 H_2174 80.039 42.309 -31.020 H 1 NIL_1    0.000
101 H_18751 84.313 47.847 -24.270 H 1 NIL_1    0.000
102 H_18752 84.132 47.867 -26.054 H 1 NIL_1    0.000
103 H_18753 83.513 49.223 -25.074 H 1 NIL_1    0.000
104 H_2188 95.420 45.622 -31.218 H 1 NIL_1    0.000
105 H_2196 94.315 43.903 -27.553 H 1 NIL_1    0.000
106 H_2180 76.418 45.478 -31.510 H 1 NIL_1    0.000
107 H_2172 80.489 44.500 -31.817 H 1 NIL_1    0.000
108 H_18731 86.718 47.823 -24.193 H 1 NIL_1    0.000
109 H_18732 87.632 49.033 -25.113 H 1 NIL_1    0.000
110 H_18641 96.083 45.988 -27.910 H 1 NIL_1    0.000
111 H_18642 95.616 46.920 -29.330 H 1 NIL_1    0.000
112 H_18661 79.075 46.501 -33.250 H 1 NIL_1    0.000
113 H_18662 77.888 47.168 -32.120 H 1 NIL_1    0.000
114 H_18701 87.752 46.651 -26.020 H 1 NIL_1    0.000
115 H_18702 86.040 46.727 -26.378 H 1 NIL_1    0.000
116 H_18351 86.501 49.083 -29.134 H 1 NIL_1    0.000
117 H_18352 85.473 49.027 -27.716 H 1 NIL_1    0.000
118 H_22711 85.534 61.201 -39.838 H 1 NIL_1    0.000
119 H_22712 87.207 60.900 -39.314 H 1 NIL_1    0.000
120 H_22713 86.195 62.101 -38.447 H 1 NIL_1    0.000
121 H_18151 90.702 46.418 -26.450 H 1 NIL_1    0.000
122 H_18152 90.552 46.514 -28.207 H 1 NIL_1    0.000
123 H_18811 82.735 55.504 -30.907 H 1 NIL_1    0.000
124 H_18812 81.781 55.074 -29.451 H 1 NIL_1    0.000
125 H_18813 81.651 54.088 -30.930 H 1 NIL_1    0.000
126 H_18251 82.889 46.158 -29.776 H 1 NIL_1    0.000
127 H_18252 83.599 46.651 -31.345 H 1 NIL_1    0.000
128 H_18781 86.779 54.034 -24.626 H 1 NIL_1    0.000
129 H_18782 87.300 52.374 -24.225 H 1 NIL_1    0.000
130 H_18783 86.306 52.666 -25.677 H 1 NIL_1    0.000
131 HP 89.344 48.236 -26.126 H 1 NIL_1    0.000
132 H_18131 92.401 49.943 -27.033 H 1 NIL_1    0.000
133 H_18132 91.986 49.529 -28.721 H 1 NIL_1    0.000
134 H_18271 81.788 50.076 -30.671 H 1 NIL_1    0.000
135 H_18272 82.870 49.407 -31.908 H 1 NIL_1    0.000
136 H_18791 82.350 52.068 -29.632 H 1 NIL_1    0.000
137 H_18792 82.471 53.077 -28.166 H 1 NIL_1    0.000
138 HP 83.326 49.603 -28.923 H 1 NIL_1    0.000
139 H_2210 84.766 58.711 -36.200 H 1 NIL_1    0.000
140 H_2206 88.150 60.946 -37.335 H 1 NIL_1    0.000
141 H_18761 87.968 55.153 -26.568 H 1 NIL_1    0.000
142 H_18762 87.343 53.826 -27.576 H 1 NIL_1    0.000
143 H_18721 84.882 52.625 -28.015 H 1 NIL_1    0.000
144 H_18722 83.987 51.142 -27.917 H 1 NIL_1    0.000
145 H_2212 85.824 58.205 -34.102 H 1 NIL_1    0.000
146 H_2204 89.180 60.439 -35.260 H 1 NIL_1    0.000
147 H_18711 89.486 55.059 -28.408 H 1 NIL_1    0.000
148 H_18712 90.324 54.297 -27.080 H 1 NIL_1    0.000
149 H_18291 91.014 52.320 -27.051 H 1 NIL_1    0.000
150 H_18292 91.297 51.610 -28.646 H 1 NIL_1    0.000
151 H_18401 87.107 51.463 -29.885 H 1 NIL_1    0.000
152 H_18402 86.401 52.965 -29.264 H 1 NIL_1    0.000
153 H_18681 89.136 59.588 -33.100 H 1 NIL_1    0.000
154 H_18682 87.560 59.178 -32.415 H 1 NIL_1    0.000
155 HP 88.085 54.589 -29.878 H 1 NIL_1    0.000
156 H_18181 90.082 55.550 -30.808 H 1 NIL_1    0.000
157 H_18182 90.399 54.108 -31.787 H 1 NIL_1    0.000
158 H_18161 86.822 54.720 -33.223 H 1 NIL_1    0.000
159 H_18162 88.103 53.538 -33.607 H 1 NIL_1    0.000
160 HH 92.691 47.908 -25.312 H 1 NIL_1    0.000
161 HH 81.141 48.084 -28.687 H 1 NIL_1    0.000
162 HH 90.190 55.025 -34.264 H 1 NIL_1    0.000
@<TRIPOS>BOND
1 1 2 1 
2 3 1 1 
3 4 1 1 
4 5 10 1 
5 5 1 1 
6 5 162 1 
7 6 2 1 
8 7 3 1 
9 7 6 1 
10 7 155 1 
11 8 4 1 
12 9 4 2 
13 10 8 1 
14 11 6 1 
15 12 7 1 
16 13 8 1 
17 13 153 1 
18 13 154 1 
19 14 10 2 
20 15 11 2 
21 16 20 1 
22 16 11 1 
23 16 151 1 
24 16 152 1 
25 17 12 2 
26 18 12 1 
27 19 13 1 
28 20 25 1 
29 21 18 1 
30 21 27 1 
31 21 149 1 
32 21 150 1 
33 22 18 1 
34 22 28 1 
35 22 147 1 
36 22 148 1 
37 23 19 2 
38 23 146 1 
39 24 30 2 
40 24 19 1 
41 24 145 1 
42 25 31 1 
43 26 20 1 
44 26 33 1 
45 26 143 1 
46 26 144 1 
47 27 35 1 
48 28 141 1 
49 28 142 1 
50 29 23 1 
51 29 140 1 
52 30 37 1 
53 30 139 1 
54 31 138 1 
55 32 25 2 
56 33 136 1 
57 33 137 1 
58 34 27 2 
59 36 28 1 
60 37 29 2 
61 38 45 1 
62 38 31 1 
63 38 134 1 
64 38 135 1 
65 39 46 1 
66 39 31 1 
67 39 47 1 
68 40 33 1 
69 41 35 1 
70 41 49 1 
71 41 132 1 
72 41 133 1 
73 42 51 1 
74 42 35 1 
75 42 131 1 
76 43 36 1 
77 43 128 1 
78 43 129 1 
79 43 130 1 
80 44 37 1 
81 45 46 1 
82 46 126 1 
83 46 127 1 
84 48 40 1 
85 48 123 1 
86 48 124 1 
87 48 125 1 
88 50 42 1 
89 50 59 2 
90 51 49 1 
91 52 44 1 
92 52 118 1 
93 52 119 1 
94 52 120 1 
95 53 45 1 
96 54 63 1 
97 54 45 1 
98 54 161 1 
99 55 47 2 
100 56 60 1 
101 56 47 1 
102 56 116 1 
103 56 117 1 
104 57 49 1 
105 58 66 1 
106 58 49 1 
107 58 160 1 
108 60 50 1 
109 61 53 1 
110 62 53 2 
111 63 61 1 
112 64 57 1 
113 65 57 2 
114 66 64 1 
115 67 60 1 
116 67 72 1 
117 67 114 1 
118 67 115 1 
119 68 61 1 
120 68 112 1 
121 68 113 1 
122 69 63 2 
123 70 64 1 
124 70 74 1 
125 71 66 2 
126 73 68 1 
127 73 76 2 
128 73 77 1 
129 74 78 1 
130 75 72 1 
131 77 82 2 
132 79 84 1 
133 79 74 2 
134 79 104 1 
135 80 75 1 
136 81 76 1 
137 82 85 1 
138 83 78 2 
139 84 86 2 
140 84 97 1 
141 85 81 2 
142 86 88 1 
143 86 83 1 
144 87 85 1 
145 89 87 1 
146 89 96 1 
147 90 88 1 
148 91 90 1 
149 92 90 1 
150 93 90 1 
151 94 89 1 
152 95 89 1 
153 98 83 1 
154 99 82 1 
155 100 81 1 
156 101 80 1 
157 102 80 1 
158 103 80 1 
159 105 78 1 
160 106 77 1 
161 107 76 1 
162 108 72 1 
163 109 72 1 
164 110 70 1 
165 111 70 1 
166 121 51 1 
167 122 51 1 
168 156 3 1 
169 157 3 1 
170 158 2 1 
171 159 2 1 
@<TRIPOS>SUBSTRUCTURE
1 NIL_1 1 RESIDUE 1 A NIL 1
