@<TRIPOS>MOLECULE
NIL
162 171 1 0 0
POLYMER
CHARGES


@<TRIPOS>ATOM
1 CQ 105.509 74.1342 -10.0002 C.3 1 NIL_1    0.000
2 C_1816 104.607 73.022 -10.554 C.3 1 NIL_1    0.000
3 C_1818 106.868 73.452 -9.879 C.3 1 NIL_1    0.000
4 C_1854 105.041 74.668 -8.663 C.2 1 NIL_1    0.000
5 NH 105.551 75.378 -10.752 N.am 1 NIL_1    0.000
6 N 105.132 71.748 -10.023 N.am 1 NIL_1    0.000
7 CP 106.522 71.984 -9.552 C.3 1 NIL_1    0.000
8 N 104.983 76.019 -8.749 N.am 1 NIL_1    0.000
9 O 104.768 74.007 -7.678 O.2 1 NIL_1    0.000
10 C_1856 105.304 76.460 -9.992 C.2 1 NIL_1    0.000
11 C_1841 104.355 70.630 -9.872 C.2 1 NIL_1    0.000
12 C_1838 107.603 71.058 -10.109 C.2 1 NIL_1    0.000
13 C_1868 104.643 76.910 -7.622 C.3 1 NIL_1    0.000
14 O 105.370 77.612 -10.369 O.2 1 NIL_1    0.000
15 O 103.175 70.663 -10.167 O.2 1 NIL_1    0.000
16 C_1840 104.943 69.312 -9.360 C.3 1 NIL_1    0.000
17 O 107.426 70.484 -11.169 O.2 1 NIL_1    0.000
18 N 108.783 70.919 -9.426 N.am 1 NIL_1    0.000
19 C_1869 103.453 77.788 -7.948 C.2 1 NIL_1    0.000
20 N 105.006 69.018 -7.901 N.am 1 NIL_1    0.000
21 C_1829 109.852 70.055 -9.988 C.3 1 NIL_1    0.000
22 C_1871 109.208 71.767 -8.280 C.3 1 NIL_1    0.000
23 C_2204 102.223 77.271 -7.990 C.2 1 NIL_1    0.000
24 C_2212 103.616 79.086 -8.222 C.2 1 NIL_1    0.000
25 C_1843 105.154 67.772 -7.337 C.2 1 NIL_1    0.000
26 C_1872 104.932 70.191 -6.997 C.3 1 NIL_1    0.000
27 C_1830 110.985 69.585 -9.086 C.2 1 NIL_1    0.000
28 C_1876 110.173 72.896 -8.687 C.3 1 NIL_1    0.000
29 C_2206 101.178 78.033 -8.318 C.2 1 NIL_1    0.000
30 C_2210 102.574 79.849 -8.553 C.2 1 NIL_1    0.000
31 AP 105.314 66.446 -8.102 C.3 1 NIL_1    0.000
32 O 105.178 67.671 -6.123 O.2 1 NIL_1    0.000
33 C_1879 106.300 70.473 -6.335 C.3 1 NIL_1    0.000
34 O 112.117 69.955 -9.330 O.2 1 NIL_1    0.000
35 N 110.734 68.776 -8.014 N.am 1 NIL_1    0.000
36 O 110.275 73.816 -7.577 O.3 1 NIL_1    0.000
37 C_2208 101.341 79.325 -8.613 C.2 1 NIL_1    0.000
38 C_1827 104.138 65.508 -7.735 C.3 1 NIL_1    0.000
39 N 105.459 66.373 -9.579 N.am 1 NIL_1    0.000
40 O 106.285 71.753 -5.668 O.3 1 NIL_1    0.000
41 C_1813 111.718 68.553 -6.947 C.3 1 NIL_1    0.000
42 BP 109.436 68.290 -7.492 C.3 1 NIL_1    0.000
43 C_1878 111.102 74.976 -7.801 C.3 1 NIL_1    0.000
44 O 100.229 80.050 -8.953 O.3 1 NIL_1    0.000
45 AQ 103.306 65.382 -9.015 C.3 1 NIL_1    0.000
46 C_1825 104.283 65.700 -10.149 C.3 1 NIL_1    0.000
47 C_1844 106.544 66.642 -10.360 C.2 1 NIL_1    0.000
48 C_1881 105.499 71.794 -4.458 C.3 1 NIL_1    0.000
49 BQ 110.954 68.797 -5.635 C.3 1 NIL_1    0.000
50 C_1833 109.274 66.774 -7.707 C.2 1 NIL_1    0.000
51 C_1815 109.461 68.629 -5.985 C.3 1 NIL_1    0.000
52 C_2271 100.386 81.168 -9.860 C.3 1 NIL_1    0.000
53 C_1846 102.109 66.302 -9.018 C.2 1 NIL_1    0.000
54 NH 102.626 64.106 -9.179 N.am 1 NIL_1    0.000
55 O 106.488 66.481 -11.564 O.2 1 NIL_1    0.000
56 C_1835 107.843 67.138 -9.749 C.3 1 NIL_1    0.000
57 C_1850 111.421 67.920 -4.499 C.2 1 NIL_1    0.000
58 NH 111.254 70.101 -5.067 N.am 1 NIL_1    0.000
59 O 109.836 65.992 -6.962 O.2 1 NIL_1    0.000
60 N 108.527 66.292 -8.748 N.am 1 NIL_1    0.000
61 N 101.000 65.542 -9.177 N.am 1 NIL_1    0.000
62 O 102.130 67.513 -8.905 O.2 1 NIL_1    0.000
63 C_1848 101.293 64.224 -9.282 C.2 1 NIL_1    0.000
64 N 111.910 68.723 -3.523 N.am 1 NIL_1    0.000
65 O 111.372 66.705 -4.464 O.2 1 NIL_1    0.000
66 C_1852 111.820 70.033 -3.852 C.2 1 NIL_1    0.000
67 C_1870 108.673 64.878 -9.182 C.3 1 NIL_1    0.000
68 C_1866 99.638 66.084 -9.291 C.3 1 NIL_1    0.000
69 O 100.513 63.308 -9.455 O.2 1 NIL_1    0.000
70 C_1864 112.486 68.242 -2.256 C.3 1 NIL_1    0.000
71 O 112.180 70.986 -3.189 O.2 1 NIL_1    0.000
72 C_1873 107.685 63.915 -8.492 C.3 1 NIL_1    0.000
73 C_1867 98.998 65.801 -10.639 C.2 1 NIL_1    0.000
74 C_1865 113.609 67.248 -2.461 C.2 1 NIL_1    0.000
75 O 108.036 62.538 -8.766 O.3 1 NIL_1    0.000
76 C_2172 99.645 66.054 -11.782 C.2 1 NIL_1    0.000
77 C_2180 97.765 65.292 -10.698 C.2 1 NIL_1    0.000
78 C_2196 114.741 67.618 -3.062 C.2 1 NIL_1    0.000
79 C_2188 113.484 65.984 -2.046 C.2 1 NIL_1    0.000
80 C_1875 107.749 62.047 -10.096 C.3 1 NIL_1    0.000
81 C_2174 99.067 65.805 -12.958 C.2 1 NIL_1    0.000
82 C_2178 97.185 65.045 -11.872 C.2 1 NIL_1    0.000
83 C_2194 115.732 66.743 -3.243 C.2 1 NIL_1    0.000
84 C_2190 114.470 65.107 -2.227 C.2 1 NIL_1    0.000
85 C_2176 97.830 65.303 -13.019 C.2 1 NIL_1    0.000
86 C_2192 115.610 65.479 -2.828 C.2 1 NIL_1    0.000
87 O 97.291 65.083 -14.264 O.3 1 NIL_1    0.000
88 O 116.672 64.634 -3.044 O.3 1 NIL_1    0.000
89 C_2273 95.873 64.802 -14.376 C.3 1 NIL_1    0.000
90 C_2269 116.577 63.246 -2.634 C.3 1 NIL_1    0.000
91 H_22691 117.505 62.736 -2.906 H 1 NIL_1    0.000
92 H_22692 115.738 62.770 -3.148 H 1 NIL_1    0.000
93 H_22693 116.435 63.188 -1.551 H 1 NIL_1    0.000
94 H_22731 95.651 63.837 -13.910 H 1 NIL_1    0.000
95 H_22732 95.604 64.764 -15.435 H 1 NIL_1    0.000
96 H_22733 95.305 65.598 -13.885 H 1 NIL_1    0.000
97 H_2190 114.317 64.091 -1.873 H 1 NIL_1    0.000
98 H_2194 116.645 67.069 -3.735 H 1 NIL_1    0.000
99 H_2178 96.181 64.632 -11.865 H 1 NIL_1    0.000
100 H_2174 99.611 66.019 -13.875 H 1 NIL_1    0.000
101 H_18751 108.401 62.539 -10.822 H 1 NIL_1    0.000
102 H_18752 106.701 62.242 -10.339 H 1 NIL_1    0.000
103 H_18753 107.933 60.968 -10.117 H 1 NIL_1    0.000
104 H_2188 112.568 65.660 -1.557 H 1 NIL_1    0.000
105 H_2196 114.861 68.643 -3.409 H 1 NIL_1    0.000
106 H_2180 97.220 65.076 -9.782 H 1 NIL_1    0.000
107 H_2172 100.653 66.466 -11.762 H 1 NIL_1    0.000
108 H_18731 107.729 64.061 -7.410 H 1 NIL_1    0.000
109 H_18732 106.666 64.092 -8.841 H 1 NIL_1    0.000
110 H_18641 111.686 67.795 -1.659 H 1 NIL_1    0.000
111 H_18642 112.879 69.092 -1.691 H 1 NIL_1    0.000
112 H_18661 99.662 67.166 -9.132 H 1 NIL_1    0.000
113 H_18662 99.033 65.646 -8.492 H 1 NIL_1    0.000
114 H_18701 109.691 64.545 -8.959 H 1 NIL_1    0.000
115 H_18702 108.546 64.808 -10.265 H 1 NIL_1    0.000
116 H_18351 108.534 67.280 -10.583 H 1 NIL_1    0.000
117 H_18352 107.593 68.108 -9.335 H 1 NIL_1    0.000
118 H_22711 100.884 80.830 -10.773 H 1 NIL_1    0.000
119 H_22712 100.969 81.958 -9.379 H 1 NIL_1    0.000
120 H_22713 99.395 81.557 -10.107 H 1 NIL_1    0.000
121 H_18151 108.940 69.572 -5.818 H 1 NIL_1    0.000
122 H_18152 108.963 67.871 -5.375 H 1 NIL_1    0.000
123 H_18811 105.828 70.995 -3.789 H 1 NIL_1    0.000
124 H_18812 104.442 71.659 -4.703 H 1 NIL_1    0.000
125 H_18813 105.642 72.763 -3.974 H 1 NIL_1    0.000
126 H_18251 104.620 64.766 -10.609 H 1 NIL_1    0.000
127 H_18252 103.815 66.333 -10.908 H 1 NIL_1    0.000
128 H_18781 111.111 75.582 -6.891 H 1 NIL_1    0.000
129 H_18782 110.690 75.567 -8.624 H 1 NIL_1    0.000
130 H_18783 112.121 74.660 -8.041 H 1 NIL_1    0.000
131 HP 108.601 68.837 -7.915 H 1 NIL_1    0.000
132 H_18131 112.571 69.233 -7.029 H 1 NIL_1    0.000
133 H_18132 112.072 67.521 -7.012 H 1 NIL_1    0.000
134 H_18271 104.539 64.530 -7.458 H 1 NIL_1    0.000
135 H_18272 103.530 65.867 -6.900 H 1 NIL_1    0.000
136 H_18791 106.551 69.700 -5.604 H 1 NIL_1    0.000
137 H_18792 107.085 70.482 -7.090 H 1 NIL_1    0.000
138 HP 106.212 66.012 -7.661 H 1 NIL_1    0.000
139 H_2210 102.752 80.898 -8.773 H 1 NIL_1    0.000
140 H_2206 100.185 77.588 -8.355 H 1 NIL_1    0.000
141 H_18761 111.162 72.491 -8.914 H 1 NIL_1    0.000
142 H_18762 109.785 73.429 -9.559 H 1 NIL_1    0.000
143 H_18721 104.196 69.978 -6.216 H 1 NIL_1    0.000
144 H_18722 104.589 71.091 -7.507 H 1 NIL_1    0.000
145 H_2212 104.609 79.529 -8.190 H 1 NIL_1    0.000
146 H_2204 102.068 76.218 -7.767 H 1 NIL_1    0.000
147 H_18711 109.687 71.153 -7.516 H 1 NIL_1    0.000
148 H_18712 108.345 72.222 -7.794 H 1 NIL_1    0.000
149 H_18291 110.313 70.600 -10.817 H 1 NIL_1    0.000
150 H_18292 109.403 69.154 -10.399 H 1 NIL_1    0.000
151 H_18401 104.308 68.555 -9.822 H 1 NIL_1    0.000
152 H_18402 105.934 69.204 -9.780 H 1 NIL_1    0.000
153 H_18681 105.516 77.528 -7.397 H 1 NIL_1    0.000
154 H_18682 104.419 76.315 -6.732 H 1 NIL_1    0.000
155 HP 106.490 71.878 -8.475 H 1 NIL_1    0.000
156 H_18181 107.486 73.925 -9.112 H 1 NIL_1    0.000
157 H_18182 107.393 73.511 -10.836 H 1 NIL_1    0.000
158 H_18161 103.565 73.182 -10.266 H 1 NIL_1    0.000
159 H_18162 104.684 72.991 -11.645 H 1 NIL_1    0.000
160 HH 111.078 70.963 -5.561 H 1 NIL_1    0.000
161 HH 103.124 63.238 -9.306 H 1 NIL_1    0.000
162 HH 105.859 75.427 -11.711 H 1 NIL_1    0.000
@<TRIPOS>BOND
1 1 2 1 
2 3 1 1 
3 4 1 1 
4 5 10 1 
5 5 1 1 
6 5 162 1 
7 6 2 1 
8 7 3 1 
9 7 6 1 
10 7 155 1 
11 8 4 1 
12 9 4 2 
13 10 8 1 
14 11 6 1 
15 12 7 1 
16 13 8 1 
17 13 153 1 
18 13 154 1 
19 14 10 2 
20 15 11 2 
21 16 20 1 
22 16 11 1 
23 16 151 1 
24 16 152 1 
25 17 12 2 
26 18 12 1 
27 19 13 1 
28 20 25 1 
29 21 18 1 
30 21 27 1 
31 21 149 1 
32 21 150 1 
33 22 18 1 
34 22 28 1 
35 22 147 1 
36 22 148 1 
37 23 19 2 
38 23 146 1 
39 24 30 2 
40 24 19 1 
41 24 145 1 
42 25 31 1 
43 26 20 1 
44 26 33 1 
45 26 143 1 
46 26 144 1 
47 27 35 1 
48 28 141 1 
49 28 142 1 
50 29 23 1 
51 29 140 1 
52 30 37 1 
53 30 139 1 
54 31 138 1 
55 32 25 2 
56 33 136 1 
57 33 137 1 
58 34 27 2 
59 36 28 1 
60 37 29 2 
61 38 45 1 
62 38 31 1 
63 38 134 1 
64 38 135 1 
65 39 46 1 
66 39 31 1 
67 39 47 1 
68 40 33 1 
69 41 35 1 
70 41 49 1 
71 41 132 1 
72 41 133 1 
73 42 51 1 
74 42 35 1 
75 42 131 1 
76 43 36 1 
77 43 128 1 
78 43 129 1 
79 43 130 1 
80 44 37 1 
81 45 46 1 
82 46 126 1 
83 46 127 1 
84 48 40 1 
85 48 123 1 
86 48 124 1 
87 48 125 1 
88 50 42 1 
89 50 59 2 
90 51 49 1 
91 52 44 1 
92 52 118 1 
93 52 119 1 
94 52 120 1 
95 53 45 1 
96 54 63 1 
97 54 45 1 
98 54 161 1 
99 55 47 2 
100 56 60 1 
101 56 47 1 
102 56 116 1 
103 56 117 1 
104 57 49 1 
105 58 66 1 
106 58 49 1 
107 58 160 1 
108 60 50 1 
109 61 53 1 
110 62 53 2 
111 63 61 1 
112 64 57 1 
113 65 57 2 
114 66 64 1 
115 67 60 1 
116 67 72 1 
117 67 114 1 
118 67 115 1 
119 68 61 1 
120 68 112 1 
121 68 113 1 
122 69 63 2 
123 70 64 1 
124 70 74 1 
125 71 66 2 
126 73 68 1 
127 73 76 2 
128 73 77 1 
129 74 78 1 
130 75 72 1 
131 77 82 2 
132 79 84 1 
133 79 74 2 
134 79 104 1 
135 80 75 1 
136 81 76 1 
137 82 85 1 
138 83 78 2 
139 84 86 2 
140 84 97 1 
141 85 81 2 
142 86 88 1 
143 86 83 1 
144 87 85 1 
145 89 87 1 
146 89 96 1 
147 90 88 1 
148 91 90 1 
149 92 90 1 
150 93 90 1 
151 94 89 1 
152 95 89 1 
153 98 83 1 
154 99 82 1 
155 100 81 1 
156 101 80 1 
157 102 80 1 
158 103 80 1 
159 105 78 1 
160 106 77 1 
161 107 76 1 
162 108 72 1 
163 109 72 1 
164 110 70 1 
165 111 70 1 
166 121 51 1 
167 122 51 1 
168 156 3 1 
169 157 3 1 
170 158 2 1 
171 159 2 1 
@<TRIPOS>SUBSTRUCTURE
1 NIL_1 1 RESIDUE 1 A NIL 1
