@<TRIPOS>MOLECULE
NIL
162 171 1 0 0
POLYMER
CHARGES


@<TRIPOS>ATOM
1 CQ 94.9406 64.2666 -18.9995 C.3 1 NIL_1    0.000
2 C_1816 94.767 62.747 -19.146 C.3 1 NIL_1    0.000
3 C_1818 95.730 64.456 -17.688 C.3 1 NIL_1    0.000
4 C_1854 93.616 64.994 -19.044 C.2 1 NIL_1    0.000
5 NH 95.582 64.872 -20.152 N.am 1 NIL_1    0.000
6 N 95.384 62.150 -17.947 N.am 1 NIL_1    0.000
7 CP 96.430 63.092 -17.496 C.3 1 NIL_1    0.000
8 N 93.637 65.841 -20.101 N.am 1 NIL_1    0.000
9 O 92.679 64.829 -18.287 O.2 1 NIL_1    0.000
10 C_1856 94.810 65.777 -20.777 C.2 1 NIL_1    0.000
11 C_1841 94.776 61.254 -17.124 C.2 1 NIL_1    0.000
12 C_1838 97.741 62.998 -18.294 C.2 1 NIL_1    0.000
13 C_1868 92.494 66.687 -20.497 C.3 1 NIL_1    0.000
14 O 95.123 66.404 -21.768 O.2 1 NIL_1    0.000
15 O 95.266 60.948 -16.055 O.2 1 NIL_1    0.000
16 C_1840 93.451 60.676 -17.593 C.3 1 NIL_1    0.000
17 O 98.393 63.994 -18.547 O.2 1 NIL_1    0.000
18 N 98.123 61.793 -18.802 N.am 1 NIL_1    0.000
19 C_1869 92.134 67.723 -19.450 C.2 1 NIL_1    0.000
20 N 92.947 59.563 -16.768 N.am 1 NIL_1    0.000
21 C_1829 97.980 60.514 -18.049 C.3 1 NIL_1    0.000
22 C_1871 98.769 61.701 -20.133 C.3 1 NIL_1    0.000
23 C_2204 92.959 68.744 -19.199 C.2 1 NIL_1    0.000
24 C_2212 90.989 67.638 -18.763 C.2 1 NIL_1    0.000
25 C_1843 93.201 58.266 -17.110 C.2 1 NIL_1    0.000
26 C_1872 92.167 60.029 -15.598 C.3 1 NIL_1    0.000
27 C_1830 99.226 59.624 -17.927 C.2 1 NIL_1    0.000
28 C_1876 98.038 62.483 -21.244 C.3 1 NIL_1    0.000
29 C_2206 92.652 69.657 -18.276 C.2 1 NIL_1    0.000
30 C_2210 90.680 68.550 -17.840 C.2 1 NIL_1    0.000
31 AP 92.573 57.127 -16.307 C.3 1 NIL_1    0.000
32 O 93.910 58.007 -18.066 O.2 1 NIL_1    0.000
33 C_1879 90.653 60.113 -15.889 C.3 1 NIL_1    0.000
34 O 100.138 59.664 -18.733 O.2 1 NIL_1    0.000
35 N 99.312 58.745 -16.888 N.am 1 NIL_1    0.000
36 O 98.697 62.202 -22.497 O.3 1 NIL_1    0.000
37 C_2208 91.511 69.562 -17.582 C.2 1 NIL_1    0.000
38 C_1827 91.332 56.565 -17.024 C.3 1 NIL_1    0.000
39 N 93.542 56.030 -16.132 N.am 1 NIL_1    0.000
40 O 90.353 61.200 -16.800 O.3 1 NIL_1    0.000
41 C_1813 100.467 57.843 -16.734 C.3 1 NIL_1    0.000
42 BP 98.481 58.695 -15.656 C.3 1 NIL_1    0.000
43 C_1878 98.108 62.821 -23.659 C.3 1 NIL_1    0.000
44 O 91.156 70.482 -16.633 O.3 1 NIL_1    0.000
45 AQ 91.721 55.155 -17.497 C.3 1 NIL_1    0.000
46 C_1825 93.066 54.824 -16.824 C.3 1 NIL_1    0.000
47 C_1844 94.740 56.122 -15.488 C.2 1 NIL_1    0.000
48 C_1881 90.311 62.528 -16.229 C.3 1 NIL_1    0.000
49 BQ 100.226 56.992 -15.482 C.3 1 NIL_1    0.000
50 C_1833 97.082 58.096 -15.834 C.2 1 NIL_1    0.000
51 C_1815 99.280 57.849 -14.637 C.3 1 NIL_1    0.000
52 C_2271 92.150 70.790 -15.626 C.3 1 NIL_1    0.000
53 C_1846 91.788 55.097 -19.005 C.2 1 NIL_1    0.000
54 NH 90.679 54.161 -17.274 N.am 1 NIL_1    0.000
55 O 95.555 55.222 -15.551 O.2 1 NIL_1    0.000
56 C_1835 94.982 57.346 -14.604 C.3 1 NIL_1    0.000
57 C_1850 99.658 55.632 -15.823 C.2 1 NIL_1    0.000
58 NH 101.432 56.569 -14.790 N.am 1 NIL_1    0.000
59 O 96.773 57.563 -16.883 O.2 1 NIL_1    0.000
60 N 96.222 58.144 -14.765 N.am 1 NIL_1    0.000
61 N 90.833 54.241 -19.433 N.am 1 NIL_1    0.000
62 O 92.546 55.726 -19.718 O.2 1 NIL_1    0.000
63 C_1848 90.160 53.669 -18.410 C.2 1 NIL_1    0.000
64 N 100.494 54.683 -15.337 N.am 1 NIL_1    0.000
65 O 98.644 55.409 -16.455 O.2 1 NIL_1    0.000
66 C_1852 101.577 55.235 -14.731 C.2 1 NIL_1    0.000
67 C_1870 96.256 59.186 -13.707 C.3 1 NIL_1    0.000
68 C_1866 90.502 54.033 -20.850 C.3 1 NIL_1    0.000
69 O 89.249 52.869 -18.486 O.2 1 NIL_1    0.000
70 C_1864 100.249 53.240 -15.541 C.3 1 NIL_1    0.000
71 O 102.523 54.663 -14.228 O.2 1 NIL_1    0.000
72 C_1873 96.656 58.681 -12.302 C.3 1 NIL_1    0.000
73 C_1867 89.723 55.149 -21.527 C.2 1 NIL_1    0.000
74 C_1865 100.979 52.259 -14.644 C.2 1 NIL_1    0.000
75 O 96.563 59.751 -11.329 O.3 1 NIL_1    0.000
76 C_2172 89.059 56.095 -20.848 C.2 1 NIL_1    0.000
77 C_2180 89.694 55.191 -22.861 C.2 1 NIL_1    0.000
78 C_2196 100.558 52.040 -13.395 C.2 1 NIL_1    0.000
79 C_2188 102.058 51.603 -15.082 C.2 1 NIL_1    0.000
80 C_1875 95.253 60.314 -11.079 C.3 1 NIL_1    0.000
81 C_2174 88.390 57.053 -21.492 C.2 1 NIL_1    0.000
82 C_2178 89.024 56.143 -23.508 C.2 1 NIL_1    0.000
83 C_2194 101.206 51.189 -12.600 C.2 1 NIL_1    0.000
84 C_2190 102.709 50.751 -14.288 C.2 1 NIL_1    0.000
85 C_2176 88.360 57.090 -22.827 C.2 1 NIL_1    0.000
86 C_2192 102.290 50.537 -13.031 C.2 1 NIL_1    0.000
87 O 87.642 58.100 -23.417 O.3 1 NIL_1    0.000
88 O 102.909 49.689 -12.147 O.3 1 NIL_1    0.000
89 C_2273 87.433 58.085 -24.851 C.3 1 NIL_1    0.000
90 C_2269 104.115 48.989 -12.541 C.3 1 NIL_1    0.000
91 H_22691 104.877 49.711 -12.850 H 1 NIL_1    0.000
92 H_22692 103.889 48.303 -13.362 H 1 NIL_1    0.000
93 H_22693 104.486 48.418 -11.686 H 1 NIL_1    0.000
94 H_22731 86.962 57.143 -25.142 H 1 NIL_1    0.000
95 H_22732 88.392 58.204 -25.364 H 1 NIL_1    0.000
96 H_22733 86.776 58.916 -25.117 H 1 NIL_1    0.000
97 H_2190 103.582 50.245 -14.690 H 1 NIL_1    0.000
98 H_2194 100.847 51.031 -11.586 H 1 NIL_1    0.000
99 H_2178 89.034 56.127 -24.594 H 1 NIL_1    0.000
100 H_2174 87.860 57.811 -20.918 H 1 NIL_1    0.000
101 H_18751 94.538 59.518 -10.857 H 1 NIL_1    0.000
102 H_18752 94.923 60.878 -11.955 H 1 NIL_1    0.000
103 H_18753 95.319 60.994 -10.227 H 1 NIL_1    0.000
104 H_2188 102.419 51.766 -16.095 H 1 NIL_1    0.000
105 H_2196 99.681 52.563 -13.020 H 1 NIL_1    0.000
106 H_2180 90.224 54.433 -23.434 H 1 NIL_1    0.000
107 H_2172 89.052 56.100 -19.761 H 1 NIL_1    0.000
108 H_18731 96.011 57.857 -11.981 H 1 NIL_1    0.000
109 H_18732 97.692 58.339 -12.313 H 1 NIL_1    0.000
110 H_18641 100.490 53.017 -16.584 H 1 NIL_1    0.000
111 H_18642 99.175 53.064 -15.421 H 1 NIL_1    0.000
112 H_18661 89.937 53.102 -20.945 H 1 NIL_1    0.000
113 H_18662 91.443 53.891 -21.386 H 1 NIL_1    0.000
114 H_18701 95.254 59.618 -13.651 H 1 NIL_1    0.000
115 H_18702 96.916 60.006 -13.989 H 1 NIL_1    0.000
116 H_18351 94.143 58.036 -14.665 H 1 NIL_1    0.000
117 H_18352 94.972 56.935 -13.592 H 1 NIL_1    0.000
118 H_22711 91.715 71.486 -14.904 H 1 NIL_1    0.000
119 H_22712 93.023 71.256 -16.088 H 1 NIL_1    0.000
120 H_22713 92.443 69.870 -15.114 H 1 NIL_1    0.000
121 H_18151 99.865 58.525 -14.010 H 1 NIL_1    0.000
122 H_18152 98.660 57.229 -13.986 H 1 NIL_1    0.000
123 H_18811 89.519 62.575 -15.476 H 1 NIL_1    0.000
124 H_18812 90.095 63.246 -17.026 H 1 NIL_1    0.000
125 H_18813 91.275 62.770 -15.774 H 1 NIL_1    0.000
126 H_18251 92.926 54.030 -16.086 H 1 NIL_1    0.000
127 H_18252 93.805 54.506 -17.565 H 1 NIL_1    0.000
128 H_18781 98.127 63.909 -23.547 H 1 NIL_1    0.000
129 H_18782 97.077 62.476 -23.778 H 1 NIL_1    0.000
130 H_18783 98.692 62.533 -24.537 H 1 NIL_1    0.000
131 HP 98.384 59.714 -15.278 H 1 NIL_1    0.000
132 H_18131 101.365 58.455 -16.606 H 1 NIL_1    0.000
133 H_18132 100.581 57.216 -17.624 H 1 NIL_1    0.000
134 H_18271 90.499 56.510 -16.319 H 1 NIL_1    0.000
135 H_18272 91.024 57.204 -17.858 H 1 NIL_1    0.000
136 H_18791 90.332 59.179 -16.356 H 1 NIL_1    0.000
137 H_18792 90.092 60.261 -14.962 H 1 NIL_1    0.000
138 HP 92.263 57.467 -15.320 H 1 NIL_1    0.000
139 H_2210 89.744 68.464 -17.291 H 1 NIL_1    0.000
140 H_2206 93.342 70.478 -18.102 H 1 NIL_1    0.000
141 H_18761 96.997 62.160 -21.313 H 1 NIL_1    0.000
142 H_18762 98.081 63.559 -21.053 H 1 NIL_1    0.000
143 H_18721 92.534 61.008 -15.279 H 1 NIL_1    0.000
144 H_18722 92.330 59.365 -14.750 H 1 NIL_1    0.000
145 H_2212 90.297 66.821 -18.954 H 1 NIL_1    0.000
146 H_2204 93.891 68.836 -19.751 H 1 NIL_1    0.000
147 H_18711 98.795 60.656 -20.453 H 1 NIL_1    0.000
148 H_18712 99.794 62.072 -20.048 H 1 NIL_1    0.000
149 H_18291 97.197 59.912 -18.518 H 1 NIL_1    0.000
150 H_18292 97.667 60.756 -17.033 H 1 NIL_1    0.000
151 H_18401 92.729 61.496 -17.578 H 1 NIL_1    0.000
152 H_18402 93.567 60.348 -18.630 H 1 NIL_1    0.000
153 H_18681 91.637 66.034 -20.683 H 1 NIL_1    0.000
154 H_18682 92.725 67.194 -21.439 H 1 NIL_1    0.000
155 HP 96.681 62.935 -16.443 H 1 NIL_1    0.000
156 H_18181 95.041 64.617 -16.855 H 1 NIL_1    0.000
157 H_18182 96.417 65.305 -17.724 H 1 NIL_1    0.000
158 H_18161 93.708 62.504 -19.239 H 1 NIL_1    0.000
159 H_18162 95.284 62.383 -20.036 H 1 NIL_1    0.000
160 HH 102.076 57.225 -14.373 H 1 NIL_1    0.000
161 HH 90.343 53.922 -16.353 H 1 NIL_1    0.000
162 HH 96.510 64.613 -20.451 H 1 NIL_1    0.000
@<TRIPOS>BOND
1 1 2 1 
2 3 1 1 
3 4 1 1 
4 5 10 1 
5 5 1 1 
6 5 162 1 
7 6 2 1 
8 7 3 1 
9 7 6 1 
10 7 155 1 
11 8 4 1 
12 9 4 2 
13 10 8 1 
14 11 6 1 
15 12 7 1 
16 13 8 1 
17 13 153 1 
18 13 154 1 
19 14 10 2 
20 15 11 2 
21 16 20 1 
22 16 11 1 
23 16 151 1 
24 16 152 1 
25 17 12 2 
26 18 12 1 
27 19 13 1 
28 20 25 1 
29 21 18 1 
30 21 27 1 
31 21 149 1 
32 21 150 1 
33 22 18 1 
34 22 28 1 
35 22 147 1 
36 22 148 1 
37 23 19 2 
38 23 146 1 
39 24 30 2 
40 24 19 1 
41 24 145 1 
42 25 31 1 
43 26 20 1 
44 26 33 1 
45 26 143 1 
46 26 144 1 
47 27 35 1 
48 28 141 1 
49 28 142 1 
50 29 23 1 
51 29 140 1 
52 30 37 1 
53 30 139 1 
54 31 138 1 
55 32 25 2 
56 33 136 1 
57 33 137 1 
58 34 27 2 
59 36 28 1 
60 37 29 2 
61 38 45 1 
62 38 31 1 
63 38 134 1 
64 38 135 1 
65 39 46 1 
66 39 31 1 
67 39 47 1 
68 40 33 1 
69 41 35 1 
70 41 49 1 
71 41 132 1 
72 41 133 1 
73 42 51 1 
74 42 35 1 
75 42 131 1 
76 43 36 1 
77 43 128 1 
78 43 129 1 
79 43 130 1 
80 44 37 1 
81 45 46 1 
82 46 126 1 
83 46 127 1 
84 48 40 1 
85 48 123 1 
86 48 124 1 
87 48 125 1 
88 50 42 1 
89 50 59 2 
90 51 49 1 
91 52 44 1 
92 52 118 1 
93 52 119 1 
94 52 120 1 
95 53 45 1 
96 54 63 1 
97 54 45 1 
98 54 161 1 
99 55 47 2 
100 56 60 1 
101 56 47 1 
102 56 116 1 
103 56 117 1 
104 57 49 1 
105 58 66 1 
106 58 49 1 
107 58 160 1 
108 60 50 1 
109 61 53 1 
110 62 53 2 
111 63 61 1 
112 64 57 1 
113 65 57 2 
114 66 64 1 
115 67 60 1 
116 67 72 1 
117 67 114 1 
118 67 115 1 
119 68 61 1 
120 68 112 1 
121 68 113 1 
122 69 63 2 
123 70 64 1 
124 70 74 1 
125 71 66 2 
126 73 68 1 
127 73 76 2 
128 73 77 1 
129 74 78 1 
130 75 72 1 
131 77 82 2 
132 79 84 1 
133 79 74 2 
134 79 104 1 
135 80 75 1 
136 81 76 1 
137 82 85 1 
138 83 78 2 
139 84 86 2 
140 84 97 1 
141 85 81 2 
142 86 88 1 
143 86 83 1 
144 87 85 1 
145 89 87 1 
146 89 96 1 
147 90 88 1 
148 91 90 1 
149 92 90 1 
150 93 90 1 
151 94 89 1 
152 95 89 1 
153 98 83 1 
154 99 82 1 
155 100 81 1 
156 101 80 1 
157 102 80 1 
158 103 80 1 
159 105 78 1 
160 106 77 1 
161 107 76 1 
162 108 72 1 
163 109 72 1 
164 110 70 1 
165 111 70 1 
166 121 51 1 
167 122 51 1 
168 156 3 1 
169 157 3 1 
170 158 2 1 
171 159 2 1 
@<TRIPOS>SUBSTRUCTURE
1 NIL_1 1 RESIDUE 1 A NIL 1
