@<TRIPOS>MOLECULE
NIL
162 171 1 0 0
POLYMER
CHARGES


@<TRIPOS>ATOM
1 CQ 108.883 79.3251 -4.51369 C.3 1 NIL_1    0.000
2 C_1816 107.798 78.338 -4.085 C.3 1 NIL_1    0.000
3 C_1818 109.863 79.367 -3.328 C.3 1 NIL_1    0.000
4 C_1854 108.327 80.673 -4.892 C.2 1 NIL_1    0.000
5 NH 109.503 78.959 -5.780 N.am 1 NIL_1    0.000
6 N 108.443 77.367 -3.197 N.am 1 NIL_1    0.000
7 CP 109.531 78.109 -2.497 C.3 1 NIL_1    0.000
8 N 108.680 80.929 -6.174 N.am 1 NIL_1    0.000
9 O 107.666 81.400 -4.175 O.2 1 NIL_1    0.000
10 C_1856 109.373 79.904 -6.725 C.2 1 NIL_1    0.000
11 C_1841 107.746 76.282 -2.754 C.2 1 NIL_1    0.000
12 C_1838 110.812 77.457 -1.959 C.2 1 NIL_1    0.000
13 C_1868 108.374 82.188 -6.874 C.3 1 NIL_1    0.000
14 O 109.801 79.833 -7.861 O.2 1 NIL_1    0.000
15 O 106.531 76.266 -2.813 O.2 1 NIL_1    0.000
16 C_1840 108.514 75.006 -2.466 C.3 1 NIL_1    0.000
17 O 111.167 77.792 -0.844 O.2 1 NIL_1    0.000
18 N 111.541 76.524 -2.648 N.am 1 NIL_1    0.000
19 C_1869 108.923 83.384 -6.120 C.2 1 NIL_1    0.000
20 N 108.245 74.202 -1.258 N.am 1 NIL_1    0.000
21 C_1829 112.284 75.507 -1.846 C.3 1 NIL_1    0.000
22 C_1871 111.330 76.159 -4.070 C.3 1 NIL_1    0.000
23 C_2204 110.241 83.570 -6.009 C.2 1 NIL_1    0.000
24 C_2212 108.099 84.261 -5.538 C.2 1 NIL_1    0.000
25 C_1843 108.592 72.880 -1.142 C.2 1 NIL_1    0.000
26 C_1872 107.575 74.933 -0.152 C.3 1 NIL_1    0.000
27 C_1830 113.497 74.788 -2.424 C.2 1 NIL_1    0.000
28 C_1876 112.184 76.978 -5.063 C.3 1 NIL_1    0.000
29 C_2206 110.725 84.612 -5.333 C.2 1 NIL_1    0.000
30 C_2210 108.581 85.303 -4.858 C.2 1 NIL_1    0.000
31 AP 109.048 72.037 -2.355 C.3 1 NIL_1    0.000
32 O 108.465 72.322 -0.070 O.2 1 NIL_1    0.000
33 C_1879 108.489 75.917 0.606 C.3 1 NIL_1    0.000
34 O 113.998 75.072 -3.494 O.2 1 NIL_1    0.000
35 N 114.040 73.800 -1.662 N.am 1 NIL_1    0.000
36 O 111.932 76.506 -6.406 O.3 1 NIL_1    0.000
37 C_2208 109.904 85.487 -4.746 C.2 1 NIL_1    0.000
38 C_1827 107.814 71.788 -3.255 C.3 1 NIL_1    0.000
39 N 110.174 72.489 -3.229 N.am 1 NIL_1    0.000
40 O 109.442 75.194 1.415 O.3 1 NIL_1    0.000
41 C_1813 115.239 73.057 -2.063 C.3 1 NIL_1    0.000
42 BP 113.700 73.484 -0.260 C.3 1 NIL_1    0.000
43 C_1878 112.591 75.273 -6.774 C.3 1 NIL_1    0.000
44 O 110.466 86.541 -4.074 O.3 1 NIL_1    0.000
45 AQ 108.355 71.826 -4.688 C.3 1 NIL_1    0.000
46 C_1825 109.637 72.669 -4.598 C.3 1 NIL_1    0.000
47 C_1844 111.507 72.205 -3.086 C.2 1 NIL_1    0.000
48 C_1881 108.948 74.645 2.659 C.3 1 NIL_1    0.000
49 BQ 115.799 72.329 -0.830 C.3 1 NIL_1    0.000
50 C_1833 112.297 72.970 0.080 C.2 1 NIL_1    0.000
51 C_1815 114.762 72.507 0.292 C.3 1 NIL_1    0.000
52 C_2271 109.793 87.052 -2.898 C.3 1 NIL_1    0.000
53 C_1846 107.364 72.333 -5.711 C.2 1 NIL_1    0.000
54 NH 108.558 70.481 -5.206 N.am 1 NIL_1    0.000
55 O 112.292 72.530 -3.957 O.2 1 NIL_1    0.000
56 C_1835 112.053 71.409 -1.904 C.3 1 NIL_1    0.000
57 C_1850 116.099 70.879 -1.126 C.2 1 NIL_1    0.000
58 NH 117.140 72.775 -0.482 N.am 1 NIL_1    0.000
59 O 111.691 73.536 0.967 O.2 1 NIL_1    0.000
60 N 111.757 71.871 -0.530 N.am 1 NIL_1    0.000
61 N 107.070 71.314 -6.554 N.am 1 NIL_1    0.000
62 O 106.909 73.459 -5.775 O.2 1 NIL_1    0.000
63 C_1848 107.758 70.190 -6.245 C.2 1 NIL_1    0.000
64 N 117.434 70.690 -1.013 N.am 1 NIL_1    0.000
65 O 115.285 70.024 -1.418 O.2 1 NIL_1    0.000
66 C_1852 118.074 71.820 -0.629 C.2 1 NIL_1    0.000
67 C_1870 111.160 70.750 0.247 C.3 1 NIL_1    0.000
68 C_1866 106.084 71.401 -7.651 C.3 1 NIL_1    0.000
69 O 107.671 69.106 -6.788 O.2 1 NIL_1    0.000
70 C_1864 118.110 69.417 -1.318 C.3 1 NIL_1    0.000
71 O 119.268 71.966 -0.452 O.2 1 NIL_1    0.000
72 C_1873 111.136 70.872 1.788 C.3 1 NIL_1    0.000
73 C_1867 104.649 71.634 -7.206 C.2 1 NIL_1    0.000
74 C_1865 117.884 68.998 -2.759 C.2 1 NIL_1    0.000
75 O 110.769 69.604 2.381 O.3 1 NIL_1    0.000
76 C_2172 104.177 71.110 -6.069 C.2 1 NIL_1    0.000
77 C_2180 103.827 72.379 -7.952 C.2 1 NIL_1    0.000
78 C_2196 117.101 67.956 -3.048 C.2 1 NIL_1    0.000
79 C_2188 118.454 69.670 -3.763 C.2 1 NIL_1    0.000
80 C_1875 109.417 69.150 2.152 C.3 1 NIL_1    0.000
81 C_2174 102.924 71.344 -5.680 C.2 1 NIL_1    0.000
82 C_2178 102.570 72.610 -7.568 C.2 1 NIL_1    0.000
83 C_2194 116.889 67.588 -4.314 C.2 1 NIL_1    0.000
84 C_2190 118.244 69.305 -5.029 C.2 1 NIL_1    0.000
85 C_2176 102.105 72.096 -6.420 C.2 1 NIL_1    0.000
86 C_2192 117.462 68.263 -5.321 C.2 1 NIL_1    0.000
87 O 100.836 72.299 -5.940 O.3 1 NIL_1    0.000
88 O 117.301 67.950 -6.649 O.3 1 NIL_1    0.000
89 C_2273 99.803 72.798 -6.824 C.3 1 NIL_1    0.000
90 C_2269 116.325 66.955 -7.040 C.3 1 NIL_1    0.000
91 H_22691 115.335 67.256 -6.686 H 1 NIL_1    0.000
92 H_22692 116.599 65.983 -6.622 H 1 NIL_1    0.000
93 H_22693 116.315 66.887 -8.132 H 1 NIL_1    0.000
94 H_22731 98.860 72.824 -6.272 H 1 NIL_1    0.000
95 H_22732 99.703 72.127 -7.682 H 1 NIL_1    0.000
96 H_22733 100.052 73.809 -7.157 H 1 NIL_1    0.000
97 H_2190 118.718 69.866 -5.832 H 1 NIL_1    0.000
98 H_2194 116.245 66.733 -4.496 H 1 NIL_1    0.000
99 H_2178 101.942 73.229 -8.205 H 1 NIL_1    0.000
100 H_2174 102.567 70.915 -4.746 H 1 NIL_1    0.000
101 H_18751 109.265 68.948 1.089 H 1 NIL_1    0.000
102 H_18752 108.716 69.916 2.494 H 1 NIL_1    0.000
103 H_18753 109.259 68.228 2.716 H 1 NIL_1    0.000
104 H_2188 119.093 70.525 -3.554 H 1 NIL_1    0.000
105 H_2196 116.622 67.398 -2.246 H 1 NIL_1    0.000
106 H_2180 104.185 72.809 -8.886 H 1 NIL_1    0.000
107 H_2172 104.812 70.491 -5.441 H 1 NIL_1    0.000
108 H_18731 112.136 71.125 2.151 H 1 NIL_1    0.000
109 H_18732 110.426 71.639 2.110 H 1 NIL_1    0.000
110 H_18641 117.724 68.652 -0.638 H 1 NIL_1    0.000
111 H_18642 119.182 69.516 -1.132 H 1 NIL_1    0.000
112 H_18661 106.122 70.481 -8.242 H 1 NIL_1    0.000
113 H_18662 106.395 72.217 -8.309 H 1 NIL_1    0.000
114 H_18701 111.735 69.848 0.018 H 1 NIL_1    0.000
115 H_18702 110.146 70.580 -0.108 H 1 NIL_1    0.000
116 H_18351 111.646 70.403 -2.050 H 1 NIL_1    0.000
117 H_18352 113.133 71.331 -2.028 H 1 NIL_1    0.000
118 H_22711 109.612 86.234 -2.195 H 1 NIL_1    0.000
119 H_22712 108.849 87.527 -3.180 H 1 NIL_1    0.000
120 H_22713 110.438 87.799 -2.427 H 1 NIL_1    0.000
121 H_18151 115.221 72.924 1.192 H 1 NIL_1    0.000
122 H_18152 114.316 71.548 0.567 H 1 NIL_1    0.000
123 H_18811 108.107 73.972 2.467 H 1 NIL_1    0.000
124 H_18812 108.626 75.462 3.311 H 1 NIL_1    0.000
125 H_18813 109.752 74.085 3.144 H 1 NIL_1    0.000
126 H_18251 110.346 72.341 -5.363 H 1 NIL_1    0.000
127 H_18252 109.431 73.726 -4.774 H 1 NIL_1    0.000
128 H_18781 112.321 74.479 -6.073 H 1 NIL_1    0.000
129 H_18782 113.674 75.429 -6.758 H 1 NIL_1    0.000
130 H_18783 112.277 74.988 -7.781 H 1 NIL_1    0.000
131 HP 113.815 74.417 0.300 H 1 NIL_1    0.000
132 H_18131 115.983 73.748 -2.467 H 1 NIL_1    0.000
133 H_18132 114.967 72.343 -2.843 H 1 NIL_1    0.000
134 H_18271 107.344 70.829 -3.019 H 1 NIL_1    0.000
135 H_18272 107.054 72.561 -3.119 H 1 NIL_1    0.000
136 H_18791 109.034 76.537 -0.107 H 1 NIL_1    0.000
137 H_18792 107.899 76.572 1.254 H 1 NIL_1    0.000
138 HP 109.333 71.061 -1.959 H 1 NIL_1    0.000
139 H_2210 107.878 85.996 -4.404 H 1 NIL_1    0.000
140 H_2206 111.802 84.744 -5.255 H 1 NIL_1    0.000
141 H_18761 111.906 78.030 -5.014 H 1 NIL_1    0.000
142 H_18762 113.253 76.900 -4.852 H 1 NIL_1    0.000
143 H_18721 107.162 74.218 0.561 H 1 NIL_1    0.000
144 H_18722 106.714 75.475 -0.541 H 1 NIL_1    0.000
145 H_2212 107.023 84.125 -5.611 H 1 NIL_1    0.000
146 H_2204 110.931 82.865 -6.468 H 1 NIL_1    0.000
147 H_18711 110.287 76.289 -4.349 H 1 NIL_1    0.000
148 H_18712 111.542 75.097 -4.195 H 1 NIL_1    0.000
149 H_18291 111.561 74.731 -1.588 H 1 NIL_1    0.000
150 H_18292 112.638 75.954 -0.913 H 1 NIL_1    0.000
151 H_18401 108.239 74.402 -3.322 H 1 NIL_1    0.000
152 H_18402 109.570 75.192 -2.511 H 1 NIL_1    0.000
153 H_18681 107.289 82.272 -6.983 H 1 NIL_1    0.000
154 H_18682 108.810 82.164 -7.876 H 1 NIL_1    0.000
155 HP 109.044 78.478 -1.589 H 1 NIL_1    0.000
156 H_18181 109.701 80.256 -2.714 H 1 NIL_1    0.000
157 H_18182 110.902 79.386 -3.661 H 1 NIL_1    0.000
158 H_18161 107.018 78.858 -3.521 H 1 NIL_1    0.000
159 H_18162 107.351 77.838 -4.951 H 1 NIL_1    0.000
160 HH 117.345 73.727 -0.218 H 1 NIL_1    0.000
161 HH 109.141 69.803 -4.740 H 1 NIL_1    0.000
162 HH 109.964 78.073 -5.926 H 1 NIL_1    0.000
@<TRIPOS>BOND
1 1 2 1 
2 3 1 1 
3 4 1 1 
4 5 10 1 
5 5 1 1 
6 5 162 1 
7 6 2 1 
8 7 3 1 
9 7 6 1 
10 7 155 1 
11 8 4 1 
12 9 4 2 
13 10 8 1 
14 11 6 1 
15 12 7 1 
16 13 8 1 
17 13 153 1 
18 13 154 1 
19 14 10 2 
20 15 11 2 
21 16 20 1 
22 16 11 1 
23 16 151 1 
24 16 152 1 
25 17 12 2 
26 18 12 1 
27 19 13 1 
28 20 25 1 
29 21 18 1 
30 21 27 1 
31 21 149 1 
32 21 150 1 
33 22 18 1 
34 22 28 1 
35 22 147 1 
36 22 148 1 
37 23 19 2 
38 23 146 1 
39 24 30 2 
40 24 19 1 
41 24 145 1 
42 25 31 1 
43 26 20 1 
44 26 33 1 
45 26 143 1 
46 26 144 1 
47 27 35 1 
48 28 141 1 
49 28 142 1 
50 29 23 1 
51 29 140 1 
52 30 37 1 
53 30 139 1 
54 31 138 1 
55 32 25 2 
56 33 136 1 
57 33 137 1 
58 34 27 2 
59 36 28 1 
60 37 29 2 
61 38 45 1 
62 38 31 1 
63 38 134 1 
64 38 135 1 
65 39 46 1 
66 39 31 1 
67 39 47 1 
68 40 33 1 
69 41 35 1 
70 41 49 1 
71 41 132 1 
72 41 133 1 
73 42 51 1 
74 42 35 1 
75 42 131 1 
76 43 36 1 
77 43 128 1 
78 43 129 1 
79 43 130 1 
80 44 37 1 
81 45 46 1 
82 46 126 1 
83 46 127 1 
84 48 40 1 
85 48 123 1 
86 48 124 1 
87 48 125 1 
88 50 42 1 
89 50 59 2 
90 51 49 1 
91 52 44 1 
92 52 118 1 
93 52 119 1 
94 52 120 1 
95 53 45 1 
96 54 63 1 
97 54 45 1 
98 54 161 1 
99 55 47 2 
100 56 60 1 
101 56 47 1 
102 56 116 1 
103 56 117 1 
104 57 49 1 
105 58 66 1 
106 58 49 1 
107 58 160 1 
108 60 50 1 
109 61 53 1 
110 62 53 2 
111 63 61 1 
112 64 57 1 
113 65 57 2 
114 66 64 1 
115 67 60 1 
116 67 72 1 
117 67 114 1 
118 67 115 1 
119 68 61 1 
120 68 112 1 
121 68 113 1 
122 69 63 2 
123 70 64 1 
124 70 74 1 
125 71 66 2 
126 73 68 1 
127 73 76 2 
128 73 77 1 
129 74 78 1 
130 75 72 1 
131 77 82 2 
132 79 84 1 
133 79 74 2 
134 79 104 1 
135 80 75 1 
136 81 76 1 
137 82 85 1 
138 83 78 2 
139 84 86 2 
140 84 97 1 
141 85 81 2 
142 86 88 1 
143 86 83 1 
144 87 85 1 
145 89 87 1 
146 89 96 1 
147 90 88 1 
148 91 90 1 
149 92 90 1 
150 93 90 1 
151 94 89 1 
152 95 89 1 
153 98 83 1 
154 99 82 1 
155 100 81 1 
156 101 80 1 
157 102 80 1 
158 103 80 1 
159 105 78 1 
160 106 77 1 
161 107 76 1 
162 108 72 1 
163 109 72 1 
164 110 70 1 
165 111 70 1 
166 121 51 1 
167 122 51 1 
168 156 3 1 
169 157 3 1 
170 158 2 1 
171 159 2 1 
@<TRIPOS>SUBSTRUCTURE
1 NIL_1 1 RESIDUE 1 A NIL 1
