@<TRIPOS>MOLECULE
NIL
162 171 1 0 0
POLYMER
CHARGES


@<TRIPOS>ATOM
1 CQ 93.8174 62.7869 -19.7469 C.3 1 NIL_1    0.000
2 C_1816 93.012 63.041 -18.462 C.3 1 NIL_1    0.000
3 C_1818 94.903 61.762 -19.339 C.3 1 NIL_1    0.000
4 C_1854 94.355 64.079 -20.316 C.2 1 NIL_1    0.000
5 NH 92.994 62.356 -20.865 N.am 1 NIL_1    0.000
6 N 93.266 61.845 -17.647 N.am 1 NIL_1    0.000
7 CP 94.746 61.697 -17.806 C.3 1 NIL_1    0.000
8 N 93.813 64.252 -21.544 N.am 1 NIL_1    0.000
9 O 95.115 64.850 -19.761 O.2 1 NIL_1    0.000
10 C_1856 92.989 63.233 -21.886 C.2 1 NIL_1    0.000
11 C_1841 92.243 60.943 -17.488 C.2 1 NIL_1    0.000
12 C_1838 95.560 60.634 -17.041 C.2 1 NIL_1    0.000
13 C_1868 94.010 65.465 -22.358 C.3 1 NIL_1    0.000
14 O 92.341 63.126 -22.908 O.2 1 NIL_1    0.000
15 O 91.099 61.354 -17.479 O.2 1 NIL_1    0.000
16 C_1840 92.529 59.447 -17.376 C.3 1 NIL_1    0.000
17 O 95.029 59.927 -16.211 O.2 1 NIL_1    0.000
18 N 96.923 60.550 -17.201 N.am 1 NIL_1    0.000
19 C_1869 93.311 66.700 -21.814 C.2 1 NIL_1    0.000
20 N 91.438 58.462 -17.597 N.am 1 NIL_1    0.000
21 C_1829 97.670 59.455 -16.517 C.3 1 NIL_1    0.000
22 C_1871 97.774 61.748 -17.422 C.3 1 NIL_1    0.000
23 C_2204 93.874 67.905 -21.944 C.2 1 NIL_1    0.000
24 C_2212 92.123 66.615 -21.204 C.2 1 NIL_1    0.000
25 C_1843 91.789 57.267 -18.156 C.2 1 NIL_1    0.000
26 C_1872 90.277 58.640 -16.684 C.3 1 NIL_1    0.000
27 C_1830 98.790 58.739 -17.276 C.2 1 NIL_1    0.000
28 C_1876 98.314 61.995 -18.849 C.3 1 NIL_1    0.000
29 C_2206 93.266 68.996 -21.475 C.2 1 NIL_1    0.000
30 C_2210 91.517 67.702 -20.729 C.2 1 NIL_1    0.000
31 AP 91.389 55.978 -17.437 C.3 1 NIL_1    0.000
32 O 92.449 57.232 -19.178 O.2 1 NIL_1    0.000
33 C_1879 88.922 58.746 -17.420 C.3 1 NIL_1    0.000
34 O 99.579 59.336 -17.980 O.2 1 NIL_1    0.000
35 N 98.934 57.395 -17.084 N.am 1 NIL_1    0.000
36 O 98.014 60.890 -19.733 O.3 1 NIL_1    0.000
37 C_2208 92.084 68.910 -20.859 C.2 1 NIL_1    0.000
38 C_1827 90.049 55.442 -17.977 C.3 1 NIL_1    0.000
39 N 92.381 54.879 -17.510 N.am 1 NIL_1    0.000
40 O 89.001 59.705 -18.499 O.3 1 NIL_1    0.000
41 C_1813 99.943 56.575 -17.768 C.3 1 NIL_1    0.000
42 BP 98.073 56.520 -16.264 C.3 1 NIL_1    0.000
43 C_1878 98.477 61.074 -21.086 C.3 1 NIL_1    0.000
44 O 91.517 70.075 -20.401 O.3 1 NIL_1    0.000
45 AQ 90.345 54.025 -18.489 C.3 1 NIL_1    0.000
46 C_1825 91.685 53.633 -17.855 C.3 1 NIL_1    0.000
47 C_1844 93.681 54.909 -17.098 C.2 1 NIL_1    0.000
48 C_1881 87.791 59.845 -19.272 C.3 1 NIL_1    0.000
49 BQ 99.907 55.164 -17.152 C.3 1 NIL_1    0.000
50 C_1833 96.698 56.310 -16.901 C.2 1 NIL_1    0.000
51 C_1815 98.799 55.179 -16.085 C.3 1 NIL_1    0.000
52 C_2271 90.278 70.024 -19.651 C.3 1 NIL_1    0.000
53 C_1846 90.429 53.952 -19.997 C.2 1 NIL_1    0.000
54 NH 89.259 53.083 -18.268 N.am 1 NIL_1    0.000
55 O 94.365 53.903 -17.125 O.2 1 NIL_1    0.000
56 C_1835 94.239 56.236 -16.602 C.3 1 NIL_1    0.000
57 C_1850 99.683 54.075 -18.172 C.2 1 NIL_1    0.000
58 NH 101.179 54.716 -16.611 N.am 1 NIL_1    0.000
59 O 96.571 56.290 -18.112 O.2 1 NIL_1    0.000
60 N 95.618 56.165 -16.080 N.am 1 NIL_1    0.000
61 N 89.502 53.064 -20.426 N.am 1 NIL_1    0.000
62 O 91.207 54.564 -20.703 O.2 1 NIL_1    0.000
63 C_1848 88.779 52.550 -19.404 C.2 1 NIL_1    0.000
64 N 100.669 53.156 -18.035 N.am 1 NIL_1    0.000
65 O 98.767 54.020 -18.971 O.2 1 NIL_1    0.000
66 C_1852 101.566 53.522 -17.082 C.2 1 NIL_1    0.000
67 C_1870 95.664 56.042 -14.608 C.3 1 NIL_1    0.000
68 C_1866 89.363 52.632 -21.823 C.3 1 NIL_1    0.000
69 O 87.869 51.749 -19.481 O.2 1 NIL_1    0.000
70 C_1864 100.684 51.891 -18.795 C.3 1 NIL_1    0.000
71 O 102.542 52.911 -16.694 O.2 1 NIL_1    0.000
72 C_1873 95.573 57.410 -13.905 C.3 1 NIL_1    0.000
73 C_1867 88.280 53.372 -22.579 C.2 1 NIL_1    0.000
74 C_1865 102.026 51.202 -18.943 C.2 1 NIL_1    0.000
75 O 95.814 57.239 -12.494 O.3 1 NIL_1    0.000
76 C_2172 87.064 52.839 -22.715 C.2 1 NIL_1    0.000
77 C_2180 88.531 54.560 -23.138 C.2 1 NIL_1    0.000
78 C_2196 102.286 50.059 -18.303 C.2 1 NIL_1    0.000
79 C_2188 102.981 51.749 -19.698 C.2 1 NIL_1    0.000
80 C_1875 95.973 58.477 -11.770 C.3 1 NIL_1    0.000
81 C_2174 86.120 53.472 -23.413 C.2 1 NIL_1    0.000
82 C_2178 87.588 55.195 -23.837 C.2 1 NIL_1    0.000
83 C_2194 103.483 49.478 -18.405 C.2 1 NIL_1    0.000
84 C_2190 104.179 51.172 -19.800 C.2 1 NIL_1    0.000
85 C_2176 86.375 54.649 -23.991 C.2 1 NIL_1    0.000
86 C_2192 104.448 50.034 -19.153 C.2 1 NIL_1    0.000
87 O 85.373 55.243 -24.710 O.3 1 NIL_1    0.000
88 O 105.711 49.511 -19.296 O.3 1 NIL_1    0.000
89 C_2273 85.740 55.936 -25.928 C.3 1 NIL_1    0.000
90 C_2269 106.100 48.345 -18.530 C.3 1 NIL_1    0.000
91 H_22691 105.972 48.543 -17.463 H 1 NIL_1    0.000
92 H_22692 107.152 48.131 -18.733 H 1 NIL_1    0.000
93 H_22693 105.491 47.490 -18.834 H 1 NIL_1    0.000
94 H_22731 86.361 55.286 -26.550 H 1 NIL_1    0.000
95 H_22732 86.282 56.854 -25.685 H 1 NIL_1    0.000
96 H_22733 84.827 56.192 -26.470 H 1 NIL_1    0.000
97 H_2190 104.944 51.642 -20.413 H 1 NIL_1    0.000
98 H_2194 103.647 48.552 -17.861 H 1 NIL_1    0.000
99 H_2178 87.829 56.159 -24.277 H 1 NIL_1    0.000
100 H_2174 85.138 53.016 -23.520 H 1 NIL_1    0.000
101 H_18751 96.229 58.253 -10.731 H 1 NIL_1    0.000
102 H_18752 95.040 59.045 -11.806 H 1 NIL_1    0.000
103 H_18753 96.780 59.060 -12.225 H 1 NIL_1    0.000
104 H_2188 102.790 52.682 -20.223 H 1 NIL_1    0.000
105 H_2196 101.524 49.596 -17.680 H 1 NIL_1    0.000
106 H_2180 89.514 55.014 -23.033 H 1 NIL_1    0.000
107 H_2172 86.837 51.875 -22.264 H 1 NIL_1    0.000
108 H_18731 96.341 58.079 -14.297 H 1 NIL_1    0.000
109 H_18732 94.590 57.862 -14.057 H 1 NIL_1    0.000
110 H_18641 100.299 52.099 -19.798 H 1 NIL_1    0.000
111 H_18642 99.974 51.215 -18.310 H 1 NIL_1    0.000
112 H_18661 89.151 51.559 -21.832 H 1 NIL_1    0.000
113 H_18662 90.320 52.772 -22.331 H 1 NIL_1    0.000
114 H_18701 96.587 55.541 -14.313 H 1 NIL_1    0.000
115 H_18702 94.833 55.414 -14.275 H 1 NIL_1    0.000
116 H_18351 94.236 56.933 -17.443 H 1 NIL_1    0.000
117 H_18352 93.562 56.625 -15.838 H 1 NIL_1    0.000
118 H_22711 89.489 69.590 -20.271 H 1 NIL_1    0.000
119 H_22712 89.997 71.042 -19.369 H 1 NIL_1    0.000
120 H_22713 90.421 69.424 -18.748 H 1 NIL_1    0.000
121 H_18151 99.242 55.146 -15.084 H 1 NIL_1    0.000
122 H_18152 98.119 54.326 -16.175 H 1 NIL_1    0.000
123 H_18811 87.563 58.894 -19.762 H 1 NIL_1    0.000
124 H_18812 87.939 60.617 -20.031 H 1 NIL_1    0.000
125 H_18813 86.969 60.131 -18.612 H 1 NIL_1    0.000
126 H_18251 91.510 53.071 -16.935 H 1 NIL_1    0.000
127 H_18252 92.284 53.027 -18.540 H 1 NIL_1    0.000
128 H_18781 98.236 60.178 -21.662 H 1 NIL_1    0.000
129 H_18782 99.561 61.226 -21.076 H 1 NIL_1    0.000
130 H_18783 97.981 61.944 -21.528 H 1 NIL_1    0.000
131 HP 97.952 56.985 -15.285 H 1 NIL_1    0.000
132 H_18131 100.932 57.027 -17.652 H 1 NIL_1    0.000
133 H_18132 99.689 56.532 -18.831 H 1 NIL_1    0.000
134 H_18271 89.324 55.408 -17.160 H 1 NIL_1    0.000
135 H_18272 89.644 56.068 -18.773 H 1 NIL_1    0.000
136 H_18791 88.644 57.780 -17.842 H 1 NIL_1    0.000
137 H_18792 88.140 59.059 -16.723 H 1 NIL_1    0.000
138 HP 91.282 56.198 -16.374 H 1 NIL_1    0.000
139 H_2210 90.556 67.573 -20.240 H 1 NIL_1    0.000
140 H_2206 93.746 69.964 -21.597 H 1 NIL_1    0.000
141 H_18761 97.871 62.907 -19.256 H 1 NIL_1    0.000
142 H_18762 99.397 62.126 -18.805 H 1 NIL_1    0.000
143 H_18721 90.407 59.541 -16.081 H 1 NIL_1    0.000
144 H_18722 90.217 57.823 -15.967 H 1 NIL_1    0.000
145 H_2212 91.632 65.653 -21.086 H 1 NIL_1    0.000
146 H_2204 94.836 68.004 -22.442 H 1 NIL_1    0.000
147 H_18711 98.637 61.688 -16.753 H 1 NIL_1    0.000
148 H_18712 97.225 62.636 -17.105 H 1 NIL_1    0.000
149 H_18291 96.952 58.697 -16.229 H 1 NIL_1    0.000
150 H_18292 98.112 59.843 -15.594 H 1 NIL_1    0.000
151 H_18401 93.357 59.234 -18.057 H 1 NIL_1    0.000
152 H_18402 92.851 59.277 -16.348 H 1 NIL_1    0.000
153 H_18681 93.649 65.276 -23.373 H 1 NIL_1    0.000
154 H_18682 95.084 65.654 -22.425 H 1 NIL_1    0.000
155 HP 95.165 62.629 -17.416 H 1 NIL_1    0.000
156 H_18181 95.878 62.107 -19.660 H 1 NIL_1    0.000
157 H_18182 94.705 60.781 -19.779 H 1 NIL_1    0.000
158 H_18161 93.394 63.915 -17.930 H 1 NIL_1    0.000
159 H_18162 91.955 63.198 -18.691 H 1 NIL_1    0.000
160 HH 101.671 55.220 -15.889 H 1 NIL_1    0.000
161 HH 88.895 52.881 -17.348 H 1 NIL_1    0.000
162 HH 92.435 61.518 -20.835 H 1 NIL_1    0.000
@<TRIPOS>BOND
1 1 2 1 
2 3 1 1 
3 4 1 1 
4 5 10 1 
5 5 1 1 
6 5 162 1 
7 6 2 1 
8 7 3 1 
9 7 6 1 
10 7 155 1 
11 8 4 1 
12 9 4 2 
13 10 8 1 
14 11 6 1 
15 12 7 1 
16 13 8 1 
17 13 153 1 
18 13 154 1 
19 14 10 2 
20 15 11 2 
21 16 20 1 
22 16 11 1 
23 16 151 1 
24 16 152 1 
25 17 12 2 
26 18 12 1 
27 19 13 1 
28 20 25 1 
29 21 18 1 
30 21 27 1 
31 21 149 1 
32 21 150 1 
33 22 18 1 
34 22 28 1 
35 22 147 1 
36 22 148 1 
37 23 19 2 
38 23 146 1 
39 24 30 2 
40 24 19 1 
41 24 145 1 
42 25 31 1 
43 26 20 1 
44 26 33 1 
45 26 143 1 
46 26 144 1 
47 27 35 1 
48 28 141 1 
49 28 142 1 
50 29 23 1 
51 29 140 1 
52 30 37 1 
53 30 139 1 
54 31 138 1 
55 32 25 2 
56 33 136 1 
57 33 137 1 
58 34 27 2 
59 36 28 1 
60 37 29 2 
61 38 45 1 
62 38 31 1 
63 38 134 1 
64 38 135 1 
65 39 46 1 
66 39 31 1 
67 39 47 1 
68 40 33 1 
69 41 35 1 
70 41 49 1 
71 41 132 1 
72 41 133 1 
73 42 51 1 
74 42 35 1 
75 42 131 1 
76 43 36 1 
77 43 128 1 
78 43 129 1 
79 43 130 1 
80 44 37 1 
81 45 46 1 
82 46 126 1 
83 46 127 1 
84 48 40 1 
85 48 123 1 
86 48 124 1 
87 48 125 1 
88 50 42 1 
89 50 59 2 
90 51 49 1 
91 52 44 1 
92 52 118 1 
93 52 119 1 
94 52 120 1 
95 53 45 1 
96 54 63 1 
97 54 45 1 
98 54 161 1 
99 55 47 2 
100 56 60 1 
101 56 47 1 
102 56 116 1 
103 56 117 1 
104 57 49 1 
105 58 66 1 
106 58 49 1 
107 58 160 1 
108 60 50 1 
109 61 53 1 
110 62 53 2 
111 63 61 1 
112 64 57 1 
113 65 57 2 
114 66 64 1 
115 67 60 1 
116 67 72 1 
117 67 114 1 
118 67 115 1 
119 68 61 1 
120 68 112 1 
121 68 113 1 
122 69 63 2 
123 70 64 1 
124 70 74 1 
125 71 66 2 
126 73 68 1 
127 73 76 2 
128 73 77 1 
129 74 78 1 
130 75 72 1 
131 77 82 2 
132 79 84 1 
133 79 74 2 
134 79 104 1 
135 80 75 1 
136 81 76 1 
137 82 85 1 
138 83 78 2 
139 84 86 2 
140 84 97 1 
141 85 81 2 
142 86 88 1 
143 86 83 1 
144 87 85 1 
145 89 87 1 
146 89 96 1 
147 90 88 1 
148 91 90 1 
149 92 90 1 
150 93 90 1 
151 94 89 1 
152 95 89 1 
153 98 83 1 
154 99 82 1 
155 100 81 1 
156 101 80 1 
157 102 80 1 
158 103 80 1 
159 105 78 1 
160 106 77 1 
161 107 76 1 
162 108 72 1 
163 109 72 1 
164 110 70 1 
165 111 70 1 
166 121 51 1 
167 122 51 1 
168 156 3 1 
169 157 3 1 
170 158 2 1 
171 159 2 1 
@<TRIPOS>SUBSTRUCTURE
1 NIL_1 1 RESIDUE 1 A NIL 1
