@<TRIPOS>MOLECULE
NIL
162 171 1 0 0
POLYMER
CHARGES


@<TRIPOS>ATOM
1 CQ 99.0941 67.6459 -15.9387 C.3 1 NIL_1    0.000
2 C_1816 98.507 66.494 -16.759 C.3 1 NIL_1    0.000
3 C_1818 98.816 67.315 -14.468 C.3 1 NIL_1    0.000
4 C_1854 98.500 68.976 -16.333 C.2 1 NIL_1    0.000
5 NH 100.497 67.927 -16.200 N.am 1 NIL_1    0.000
6 N 97.675 65.671 -15.871 N.am 1 NIL_1    0.000
7 CP 97.843 66.111 -14.462 C.3 1 NIL_1    0.000
8 N 99.516 69.803 -16.673 N.am 1 NIL_1    0.000
9 O 97.316 69.259 -16.341 O.2 1 NIL_1    0.000
10 C_1856 100.721 69.192 -16.586 C.2 1 NIL_1    0.000
11 C_1841 96.879 64.678 -16.356 C.2 1 NIL_1    0.000
12 C_1838 98.412 65.050 -13.526 C.2 1 NIL_1    0.000
13 C_1868 99.333 71.215 -17.044 C.3 1 NIL_1    0.000
14 O 101.811 69.682 -16.804 O.2 1 NIL_1    0.000
15 O 96.700 64.567 -17.554 O.2 1 NIL_1    0.000
16 C_1840 96.192 63.714 -15.393 C.3 1 NIL_1    0.000
17 O 99.003 64.094 -13.991 O.2 1 NIL_1    0.000
18 N 98.326 65.259 -12.174 N.am 1 NIL_1    0.000
19 C_1869 98.660 72.025 -15.951 C.2 1 NIL_1    0.000
20 N 96.768 62.348 -15.212 N.am 1 NIL_1    0.000
21 C_1829 99.167 64.552 -11.173 C.3 1 NIL_1    0.000
22 C_1871 97.189 65.948 -11.516 C.3 1 NIL_1    0.000
23 C_2204 99.086 71.970 -14.684 C.2 1 NIL_1    0.000
24 C_2212 97.612 72.801 -16.241 C.2 1 NIL_1    0.000
25 C_1843 96.163 61.510 -14.308 C.2 1 NIL_1    0.000
26 C_1872 97.871 61.986 -16.144 C.3 1 NIL_1    0.000
27 C_1830 100.572 64.166 -11.634 C.2 1 NIL_1    0.000
28 C_1876 97.312 67.479 -11.354 C.3 1 NIL_1    0.000
29 C_2206 98.473 72.672 -13.731 C.2 1 NIL_1    0.000
30 C_2210 97.000 73.507 -15.289 C.2 1 NIL_1    0.000
31 AP 96.599 60.059 -14.068 C.3 1 NIL_1    0.000
32 O 95.231 61.918 -13.639 O.2 1 NIL_1    0.000
33 C_1879 97.384 61.566 -17.551 C.3 1 NIL_1    0.000
34 O 101.194 64.867 -12.413 O.2 1 NIL_1    0.000
35 N 101.113 63.012 -11.152 N.am 1 NIL_1    0.000
36 O 98.623 67.855 -10.872 O.3 1 NIL_1    0.000
37 C_2208 97.425 73.447 -14.018 C.2 1 NIL_1    0.000
38 C_1827 95.996 59.124 -15.132 C.3 1 NIL_1    0.000
39 N 98.036 59.711 -13.949 N.am 1 NIL_1    0.000
40 O 98.054 60.359 -17.981 O.3 1 NIL_1    0.000
41 C_1813 102.421 62.519 -11.612 C.3 1 NIL_1    0.000
42 BP 100.758 62.344 -9.881 C.3 1 NIL_1    0.000
43 C_1878 98.795 67.825 -9.438 C.3 1 NIL_1    0.000
44 O 96.847 74.134 -12.980 O.3 1 NIL_1    0.000
45 AQ 96.929 57.911 -15.100 C.3 1 NIL_1    0.000
46 C_1825 98.297 58.509 -14.753 C.3 1 NIL_1    0.000
47 C_1844 99.014 60.305 -13.210 C.2 1 NIL_1    0.000
48 C_1881 99.432 60.502 -18.393 C.3 1 NIL_1    0.000
49 BQ 102.951 61.519 -10.576 C.3 1 NIL_1    0.000
50 C_1833 99.639 61.287 -9.776 C.2 1 NIL_1    0.000
51 C_1815 102.093 61.775 -9.333 C.3 1 NIL_1    0.000
52 C_2271 95.688 74.966 -13.226 C.3 1 NIL_1    0.000
53 C_1846 96.926 57.091 -16.366 C.2 1 NIL_1    0.000
54 NH 96.491 56.895 -14.154 N.am 1 NIL_1    0.000
55 O 100.178 60.003 -13.380 O.2 1 NIL_1    0.000
56 C_1835 98.655 61.355 -12.178 C.3 1 NIL_1    0.000
57 C_1850 102.897 60.097 -11.087 C.2 1 NIL_1    0.000
58 NH 104.388 61.638 -10.384 N.am 1 NIL_1    0.000
59 O 99.499 60.783 -8.676 O.2 1 NIL_1    0.000
60 N 98.774 60.895 -10.772 N.am 1 NIL_1    0.000
61 N 96.492 55.847 -16.057 N.am 1 NIL_1    0.000
62 O 97.261 57.471 -17.471 O.2 1 NIL_1    0.000
63 C_1848 96.226 55.714 -14.736 C.2 1 NIL_1    0.000
64 N 104.169 59.683 -11.301 N.am 1 NIL_1    0.000
65 O 101.899 59.428 -11.264 O.2 1 NIL_1    0.000
66 C_1852 105.075 60.594 -10.877 C.2 1 NIL_1    0.000
67 C_1870 97.619 60.031 -10.422 C.3 1 NIL_1    0.000
68 C_1866 96.278 54.784 -17.051 C.3 1 NIL_1    0.000
69 O 95.819 54.722 -14.167 O.2 1 NIL_1    0.000
70 C_1864 104.526 58.456 -12.030 C.3 1 NIL_1    0.000
71 O 106.285 60.506 -10.933 O.2 1 NIL_1    0.000
72 C_1873 96.512 60.798 -9.660 C.3 1 NIL_1    0.000
73 C_1867 95.105 55.127 -17.947 C.2 1 NIL_1    0.000
74 C_1865 104.689 57.219 -11.171 C.2 1 NIL_1    0.000
75 O 96.289 62.094 -10.265 O.3 1 NIL_1    0.000
76 C_2172 95.302 55.398 -19.240 C.2 1 NIL_1    0.000
77 C_2180 93.861 55.176 -17.459 C.2 1 NIL_1    0.000
78 C_2196 105.904 56.807 -10.797 C.2 1 NIL_1    0.000
79 C_2188 103.625 56.505 -10.796 C.2 1 NIL_1    0.000
80 C_1875 95.678 63.084 -9.412 C.3 1 NIL_1    0.000
81 C_2174 94.278 55.717 -20.030 C.2 1 NIL_1    0.000
82 C_2178 92.835 55.495 -18.248 C.2 1 NIL_1    0.000
83 C_2194 106.050 55.699 -10.069 C.2 1 NIL_1    0.000
84 C_2190 103.767 55.396 -10.067 C.2 1 NIL_1    0.000
85 C_2176 93.035 55.775 -19.537 C.2 1 NIL_1    0.000
86 C_2192 104.987 54.978 -9.701 C.2 1 NIL_1    0.000
87 O 91.959 56.108 -20.311 O.3 1 NIL_1    0.000
88 O 105.215 53.845 -8.962 O.3 1 NIL_1    0.000
89 C_2273 92.101 57.309 -21.104 C.3 1 NIL_1    0.000
90 C_2269 104.221 52.791 -8.971 C.3 1 NIL_1    0.000
91 H_22691 103.985 52.518 -10.003 H 1 NIL_1    0.000
92 H_22692 103.318 53.124 -8.452 H 1 NIL_1    0.000
93 H_22693 104.634 51.922 -8.453 H 1 NIL_1    0.000
94 H_22731 92.812 57.137 -21.917 H 1 NIL_1    0.000
95 H_22732 92.452 58.125 -20.466 H 1 NIL_1    0.000
96 H_22733 91.126 57.568 -21.525 H 1 NIL_1    0.000
97 H_2190 102.873 54.846 -9.786 H 1 NIL_1    0.000
98 H_2194 107.049 55.377 -9.784 H 1 NIL_1    0.000
99 H_2178 91.830 55.536 -17.832 H 1 NIL_1    0.000
100 H_2174 94.469 55.929 -21.079 H 1 NIL_1    0.000
101 H_18751 95.422 63.962 -10.010 H 1 NIL_1    0.000
102 H_18752 96.383 63.374 -8.627 H 1 NIL_1    0.000
103 H_18753 94.773 62.667 -8.964 H 1 NIL_1    0.000
104 H_2188 102.628 56.821 -11.091 H 1 NIL_1    0.000
105 H_2196 106.787 57.369 -11.094 H 1 NIL_1    0.000
106 H_2180 93.677 54.962 -16.408 H 1 NIL_1    0.000
107 H_2172 96.306 55.365 -19.656 H 1 NIL_1    0.000
108 H_18731 95.576 60.230 -9.673 H 1 NIL_1    0.000
109 H_18732 96.828 60.942 -8.622 H 1 NIL_1    0.000
110 H_18641 105.457 58.644 -12.573 H 1 NIL_1    0.000
111 H_18642 103.757 58.269 -12.783 H 1 NIL_1    0.000
112 H_18661 96.091 53.834 -16.543 H 1 NIL_1    0.000
113 H_18662 97.190 54.674 -17.643 H 1 NIL_1    0.000
114 H_18701 97.967 59.202 -9.800 H 1 NIL_1    0.000
115 H_18702 97.192 59.579 -11.316 H 1 NIL_1    0.000
116 H_18351 99.290 62.193 -12.399 H 1 NIL_1    0.000
117 H_18352 97.634 61.692 -12.340 H 1 NIL_1    0.000
118 H_22711 95.357 75.391 -12.275 H 1 NIL_1    0.000
119 H_22712 94.884 74.359 -13.651 H 1 NIL_1    0.000
120 H_22713 95.957 75.774 -13.912 H 1 NIL_1    0.000
121 H_18151 102.568 62.544 -8.721 H 1 NIL_1    0.000
122 H_18152 101.988 60.878 -8.718 H 1 NIL_1    0.000
123 H_18811 99.494 61.231 -19.206 H 1 NIL_1    0.000
124 H_18812 99.792 59.534 -18.748 H 1 NIL_1    0.000
125 H_18813 100.040 60.834 -17.546 H 1 NIL_1    0.000
126 H_18251 98.910 57.794 -14.193 H 1 NIL_1    0.000
127 H_18252 98.821 58.807 -15.664 H 1 NIL_1    0.000
128 H_18781 99.833 68.072 -9.206 H 1 NIL_1    0.000
129 H_18782 98.559 66.829 -9.055 H 1 NIL_1    0.000
130 H_18783 98.131 68.562 -8.979 H 1 NIL_1    0.000
131 HP 100.434 63.128 -9.191 H 1 NIL_1    0.000
132 H_18131 103.110 63.366 -11.679 H 1 NIL_1    0.000
133 H_18132 102.329 62.052 -12.597 H 1 NIL_1    0.000
134 H_18271 94.959 58.861 -14.908 H 1 NIL_1    0.000
135 H_18272 96.026 59.590 -16.117 H 1 NIL_1    0.000
136 H_18791 96.309 61.365 -17.531 H 1 NIL_1    0.000
137 H_18792 97.582 62.358 -18.278 H 1 NIL_1    0.000
138 HP 96.139 59.778 -13.117 H 1 NIL_1    0.000
139 H_2210 96.154 74.122 -15.578 H 1 NIL_1    0.000
140 H_2206 98.835 72.606 -12.707 H 1 NIL_1    0.000
141 H_18761 97.141 67.967 -12.310 H 1 NIL_1    0.000
142 H_18762 96.550 67.841 -10.659 H 1 NIL_1    0.000
143 H_18721 98.476 61.186 -15.735 H 1 NIL_1    0.000
144 H_18722 98.558 62.829 -16.248 H 1 NIL_1    0.000
145 H_2212 97.247 72.859 -17.264 H 1 NIL_1    0.000
146 H_2204 99.935 71.345 -14.418 H 1 NIL_1    0.000
147 H_18711 97.044 65.521 -10.521 H 1 NIL_1    0.000
148 H_18712 96.279 65.732 -12.081 H 1 NIL_1    0.000
149 H_18291 98.632 63.658 -10.852 H 1 NIL_1    0.000
150 H_18292 99.313 65.188 -10.298 H 1 NIL_1    0.000
151 H_18401 96.115 64.199 -14.418 H 1 NIL_1    0.000
152 H_18402 95.171 63.597 -15.768 H 1 NIL_1    0.000
153 H_18681 98.729 71.245 -17.955 H 1 NIL_1    0.000
154 H_18682 100.304 71.661 -17.276 H 1 NIL_1    0.000
155 HP 96.868 66.434 -14.091 H 1 NIL_1    0.000
156 H_18181 98.400 68.180 -13.953 H 1 NIL_1    0.000
157 H_18182 99.755 67.057 -13.966 H 1 NIL_1    0.000
158 H_18161 97.913 66.875 -17.595 H 1 NIL_1    0.000
159 H_18162 99.311 65.863 -17.148 H 1 NIL_1    0.000
160 HH 104.818 62.474 -10.016 H 1 NIL_1    0.000
161 HH 96.370 57.080 -13.170 H 1 NIL_1    0.000
162 HH 101.227 67.253 -16.027 H 1 NIL_1    0.000
@<TRIPOS>BOND
1 1 2 1 
2 3 1 1 
3 4 1 1 
4 5 10 1 
5 5 1 1 
6 5 162 1 
7 6 2 1 
8 7 3 1 
9 7 6 1 
10 7 155 1 
11 8 4 1 
12 9 4 2 
13 10 8 1 
14 11 6 1 
15 12 7 1 
16 13 8 1 
17 13 153 1 
18 13 154 1 
19 14 10 2 
20 15 11 2 
21 16 20 1 
22 16 11 1 
23 16 151 1 
24 16 152 1 
25 17 12 2 
26 18 12 1 
27 19 13 1 
28 20 25 1 
29 21 18 1 
30 21 27 1 
31 21 149 1 
32 21 150 1 
33 22 18 1 
34 22 28 1 
35 22 147 1 
36 22 148 1 
37 23 19 2 
38 23 146 1 
39 24 30 2 
40 24 19 1 
41 24 145 1 
42 25 31 1 
43 26 20 1 
44 26 33 1 
45 26 143 1 
46 26 144 1 
47 27 35 1 
48 28 141 1 
49 28 142 1 
50 29 23 1 
51 29 140 1 
52 30 37 1 
53 30 139 1 
54 31 138 1 
55 32 25 2 
56 33 136 1 
57 33 137 1 
58 34 27 2 
59 36 28 1 
60 37 29 2 
61 38 45 1 
62 38 31 1 
63 38 134 1 
64 38 135 1 
65 39 46 1 
66 39 31 1 
67 39 47 1 
68 40 33 1 
69 41 35 1 
70 41 49 1 
71 41 132 1 
72 41 133 1 
73 42 51 1 
74 42 35 1 
75 42 131 1 
76 43 36 1 
77 43 128 1 
78 43 129 1 
79 43 130 1 
80 44 37 1 
81 45 46 1 
82 46 126 1 
83 46 127 1 
84 48 40 1 
85 48 123 1 
86 48 124 1 
87 48 125 1 
88 50 42 1 
89 50 59 2 
90 51 49 1 
91 52 44 1 
92 52 118 1 
93 52 119 1 
94 52 120 1 
95 53 45 1 
96 54 63 1 
97 54 45 1 
98 54 161 1 
99 55 47 2 
100 56 60 1 
101 56 47 1 
102 56 116 1 
103 56 117 1 
104 57 49 1 
105 58 66 1 
106 58 49 1 
107 58 160 1 
108 60 50 1 
109 61 53 1 
110 62 53 2 
111 63 61 1 
112 64 57 1 
113 65 57 2 
114 66 64 1 
115 67 60 1 
116 67 72 1 
117 67 114 1 
118 67 115 1 
119 68 61 1 
120 68 112 1 
121 68 113 1 
122 69 63 2 
123 70 64 1 
124 70 74 1 
125 71 66 2 
126 73 68 1 
127 73 76 2 
128 73 77 1 
129 74 78 1 
130 75 72 1 
131 77 82 2 
132 79 84 1 
133 79 74 2 
134 79 104 1 
135 80 75 1 
136 81 76 1 
137 82 85 1 
138 83 78 2 
139 84 86 2 
140 84 97 1 
141 85 81 2 
142 86 88 1 
143 86 83 1 
144 87 85 1 
145 89 87 1 
146 89 96 1 
147 90 88 1 
148 91 90 1 
149 92 90 1 
150 93 90 1 
151 94 89 1 
152 95 89 1 
153 98 83 1 
154 99 82 1 
155 100 81 1 
156 101 80 1 
157 102 80 1 
158 103 80 1 
159 105 78 1 
160 106 77 1 
161 107 76 1 
162 108 72 1 
163 109 72 1 
164 110 70 1 
165 111 70 1 
166 121 51 1 
167 122 51 1 
168 156 3 1 
169 157 3 1 
170 158 2 1 
171 159 2 1 
@<TRIPOS>SUBSTRUCTURE
1 NIL_1 1 RESIDUE 1 A NIL 1
