@<TRIPOS>MOLECULE
NIL
162 171 1 0 0
POLYMER
CHARGES


@<TRIPOS>ATOM
1 CQ 109.821 79.37 -3.4254 C.3 1 NIL_1    0.000
2 C_1816 108.788 78.300 -3.058 C.3 1 NIL_1    0.000
3 C_1818 110.484 79.744 -2.096 C.3 1 NIL_1    0.000
4 C_1854 109.250 80.556 -4.161 C.2 1 NIL_1    0.000
5 NH 110.783 78.911 -4.413 N.am 1 NIL_1    0.000
6 N 109.337 77.584 -1.897 N.am 1 NIL_1    0.000
7 CP 110.249 78.522 -1.186 C.3 1 NIL_1    0.000
8 N 109.907 80.669 -5.340 N.am 1 NIL_1    0.000
9 O 108.370 81.294 -3.762 O.2 1 NIL_1    0.000
10 C_1856 110.826 79.688 -5.508 C.2 1 NIL_1    0.000
11 C_1841 108.757 76.452 -1.410 C.2 1 NIL_1    0.000
12 C_1838 111.563 78.085 -0.528 C.2 1 NIL_1    0.000
13 C_1868 109.700 81.773 -6.290 C.3 1 NIL_1    0.000
14 O 111.566 79.529 -6.458 O.2 1 NIL_1    0.000
15 O 107.658 76.113 -1.800 O.2 1 NIL_1    0.000
16 C_1840 109.543 75.602 -0.429 C.3 1 NIL_1    0.000
17 O 111.906 78.685 0.474 O.2 1 NIL_1    0.000
18 N 112.314 77.033 -0.968 N.am 1 NIL_1    0.000
19 C_1869 110.115 83.104 -5.691 C.2 1 NIL_1    0.000
20 N 108.791 74.553 0.298 N.am 1 NIL_1    0.000
21 C_1829 113.112 76.246 -0.002 C.3 1 NIL_1    0.000
22 C_1871 112.249 76.377 -2.295 C.3 1 NIL_1    0.000
23 C_2204 111.381 83.325 -5.326 C.2 1 NIL_1    0.000
24 C_2212 109.217 84.078 -5.517 C.2 1 NIL_1    0.000
25 C_1843 108.594 73.254 -0.107 C.2 1 NIL_1    0.000
26 C_1872 108.099 75.044 1.529 C.3 1 NIL_1    0.000
27 C_1830 114.618 76.397 -0.153 C.2 1 NIL_1    0.000
28 C_1876 113.382 76.734 -3.279 C.3 1 NIL_1    0.000
29 C_2206 111.743 84.497 -4.802 C.2 1 NIL_1    0.000
30 C_2210 109.577 85.250 -4.993 C.2 1 NIL_1    0.000
31 AP 108.888 72.723 -1.520 C.3 1 NIL_1    0.000
32 O 108.116 72.450 0.670 O.2 1 NIL_1    0.000
33 C_1879 108.691 76.243 2.313 C.3 1 NIL_1    0.000
34 O 115.102 77.469 -0.459 O.2 1 NIL_1    0.000
35 N 115.414 75.323 0.115 N.am 1 NIL_1    0.000
36 O 113.330 75.831 -4.414 O.3 1 NIL_1    0.000
37 C_2208 110.845 85.471 -4.625 C.2 1 NIL_1    0.000
38 C_1827 107.621 72.885 -2.390 C.3 1 NIL_1    0.000
39 N 110.045 73.185 -2.329 N.am 1 NIL_1    0.000
40 O 110.088 76.036 2.646 O.3 1 NIL_1    0.000
41 C_1813 116.873 75.430 0.245 C.3 1 NIL_1    0.000
42 BP 114.993 73.932 0.411 C.3 1 NIL_1    0.000
43 C_1878 112.176 75.914 -5.285 C.3 1 NIL_1    0.000
44 O 111.271 86.658 -4.086 O.3 1 NIL_1    0.000
45 AQ 108.154 73.105 -3.810 C.3 1 NIL_1    0.000
46 C_1825 109.545 73.707 -3.608 C.3 1 NIL_1    0.000
47 C_1844 111.346 72.834 -2.132 C.2 1 NIL_1    0.000
48 C_1881 110.393 75.006 3.609 C.3 1 NIL_1    0.000
49 BQ 117.437 74.005 0.249 C.3 1 NIL_1    0.000
50 C_1833 114.138 73.308 -0.689 C.2 1 NIL_1    0.000
51 C_1815 116.269 73.105 0.675 C.3 1 NIL_1    0.000
52 C_2271 110.337 87.415 -3.273 C.3 1 NIL_1    0.000
53 C_1846 107.267 73.941 -4.704 C.2 1 NIL_1    0.000
54 NH 108.188 71.876 -4.585 N.am 1 NIL_1    0.000
55 O 112.117 72.799 -3.070 O.2 1 NIL_1    0.000
56 C_1835 111.747 72.451 -0.713 C.3 1 NIL_1    0.000
57 C_1850 118.004 73.641 -1.105 C.2 1 NIL_1    0.000
58 NH 118.631 73.838 1.057 N.am 1 NIL_1    0.000
59 O 114.287 73.671 -1.838 O.2 1 NIL_1    0.000
60 N 113.185 72.395 -0.319 N.am 1 NIL_1    0.000
61 N 106.925 73.185 -5.774 N.am 1 NIL_1    0.000
62 O 106.928 75.093 -4.511 O.2 1 NIL_1    0.000
63 C_1848 107.464 71.944 -5.714 C.2 1 NIL_1    0.000
64 N 119.318 73.346 -0.944 N.am 1 NIL_1    0.000
65 O 117.397 73.637 -2.159 O.2 1 NIL_1    0.000
66 C_1852 119.703 73.451 0.350 C.2 1 NIL_1    0.000
67 C_1870 113.392 71.367 0.726 C.3 1 NIL_1    0.000
68 C_1866 106.052 73.643 -6.866 C.3 1 NIL_1    0.000
69 O 107.324 71.043 -6.518 O.2 1 NIL_1    0.000
70 C_1864 120.252 73.053 -2.045 C.3 1 NIL_1    0.000
71 O 120.810 73.248 0.805 O.2 1 NIL_1    0.000
72 C_1873 112.782 71.671 2.114 C.3 1 NIL_1    0.000
73 C_1867 104.680 73.016 -6.741 C.2 1 NIL_1    0.000
74 C_1865 119.800 71.977 -3.010 C.2 1 NIL_1    0.000
75 O 113.749 72.361 2.931 O.3 1 NIL_1    0.000
76 C_2172 104.325 71.996 -7.526 C.2 1 NIL_1    0.000
77 C_2180 103.807 73.464 -5.834 C.2 1 NIL_1    0.000
78 C_2196 119.530 70.739 -2.583 C.2 1 NIL_1    0.000
79 C_2188 119.673 72.253 -4.311 C.2 1 NIL_1    0.000
80 C_1875 113.350 72.587 4.298 C.3 1 NIL_1    0.000
81 C_2174 103.121 71.436 -7.407 C.2 1 NIL_1    0.000
82 C_2178 102.602 72.905 -5.713 C.2 1 NIL_1    0.000
83 C_2194 119.134 69.797 -3.442 C.2 1 NIL_1    0.000
84 C_2190 119.277 71.315 -5.171 C.2 1 NIL_1    0.000
85 C_2176 102.245 71.880 -6.502 C.2 1 NIL_1    0.000
86 C_2192 118.997 70.081 -4.740 C.2 1 NIL_1    0.000
87 O 101.028 71.246 -6.444 O.3 1 NIL_1    0.000
88 O 118.588 69.099 -5.596 O.3 1 NIL_1    0.000
89 C_2273 100.077 71.605 -5.414 C.3 1 NIL_1    0.000
90 C_2269 117.386 69.394 -6.347 C.3 1 NIL_1    0.000
91 H_22691 117.112 68.512 -6.931 H 1 NIL_1    0.000
92 H_22692 117.562 70.234 -7.023 H 1 NIL_1    0.000
93 H_22693 116.578 69.638 -5.652 H 1 NIL_1    0.000
94 H_22731 100.527 71.448 -4.430 H 1 NIL_1    0.000
95 H_22732 99.197 70.965 -5.515 H 1 NIL_1    0.000
96 H_22733 99.780 72.650 -5.535 H 1 NIL_1    0.000
97 H_2190 119.189 71.566 -6.225 H 1 NIL_1    0.000
98 H_2194 118.916 68.795 -3.078 H 1 NIL_1    0.000
99 H_2178 101.928 73.301 -4.958 H 1 NIL_1    0.000
100 H_2174 102.856 70.603 -8.054 H 1 NIL_1    0.000
101 H_18751 112.395 73.117 4.316 H 1 NIL_1    0.000
102 H_18752 114.114 73.189 4.799 H 1 NIL_1    0.000
103 H_18753 113.247 71.626 4.807 H 1 NIL_1    0.000
104 H_2188 119.895 73.253 -4.679 H 1 NIL_1    0.000
105 H_2196 119.630 70.492 -1.529 H 1 NIL_1    0.000
106 H_2180 104.079 74.291 -5.181 H 1 NIL_1    0.000
107 H_2172 105.021 71.610 -8.266 H 1 NIL_1    0.000
108 H_18731 111.871 72.271 2.030 H 1 NIL_1    0.000
109 H_18732 112.544 70.725 2.605 H 1 NIL_1    0.000
110 H_18641 121.216 72.753 -1.625 H 1 NIL_1    0.000
111 H_18642 120.416 73.987 -2.590 H 1 NIL_1    0.000
112 H_18661 106.512 73.364 -7.819 H 1 NIL_1    0.000
113 H_18662 105.968 74.732 -6.843 H 1 NIL_1    0.000
114 H_18701 114.458 71.162 0.838 H 1 NIL_1    0.000
115 H_18702 112.943 70.438 0.365 H 1 NIL_1    0.000
116 H_18351 111.280 73.186 -0.054 H 1 NIL_1    0.000
117 H_18352 111.274 71.482 -0.525 H 1 NIL_1    0.000
118 H_22711 109.936 86.769 -2.487 H 1 NIL_1    0.000
119 H_22712 109.524 87.802 -3.893 H 1 NIL_1    0.000
120 H_22713 110.867 88.255 -2.819 H 1 NIL_1    0.000
121 H_18151 116.332 72.886 1.744 H 1 NIL_1    0.000
122 H_18152 116.281 72.157 0.132 H 1 NIL_1    0.000
123 H_18811 110.061 74.033 3.237 H 1 NIL_1    0.000
124 H_18812 109.903 75.237 4.561 H 1 NIL_1    0.000
125 H_18813 111.475 74.989 3.752 H 1 NIL_1    0.000
126 H_18251 110.199 73.447 -4.444 H 1 NIL_1    0.000
127 H_18252 109.479 74.795 -3.531 H 1 NIL_1    0.000
128 H_18781 111.259 75.737 -4.718 H 1 NIL_1    0.000
129 H_18782 112.262 75.151 -6.063 H 1 NIL_1    0.000
130 H_18783 112.143 76.903 -5.748 H 1 NIL_1    0.000
131 HP 114.385 73.976 1.313 H 1 NIL_1    0.000
132 H_18131 117.096 75.919 1.198 H 1 NIL_1    0.000
133 H_18132 117.297 76.024 -0.570 H 1 NIL_1    0.000
134 H_18271 106.981 72.002 -2.329 H 1 NIL_1    0.000
135 H_18272 107.030 73.739 -2.060 H 1 NIL_1    0.000
136 H_18791 108.608 77.152 1.711 H 1 NIL_1    0.000
137 H_18792 108.133 76.391 3.241 H 1 NIL_1    0.000
138 HP 109.032 71.645 -1.394 H 1 NIL_1    0.000
139 H_2210 108.818 86.018 -4.877 H 1 NIL_1    0.000
140 H_2206 112.781 84.655 -4.515 H 1 NIL_1    0.000
141 H_18761 113.296 77.768 -3.619 H 1 NIL_1    0.000
142 H_18762 114.356 76.592 -2.807 H 1 NIL_1    0.000
143 H_18721 108.012 74.224 2.244 H 1 NIL_1    0.000
144 H_18722 107.081 75.317 1.237 H 1 NIL_1    0.000
145 H_2212 108.180 83.923 -5.804 H 1 NIL_1    0.000
146 H_2204 112.128 82.544 -5.453 H 1 NIL_1    0.000
147 H_18711 111.311 76.611 -2.783 H 1 NIL_1    0.000
148 H_18712 112.271 75.298 -2.150 H 1 NIL_1    0.000
149 H_18291 112.808 75.207 -0.086 H 1 NIL_1    0.000
150 H_18292 112.877 76.541 1.023 H 1 NIL_1    0.000
151 H_18401 110.359 75.146 -0.976 H 1 NIL_1    0.000
152 H_18402 110.016 76.280 0.271 H 1 NIL_1    0.000
153 H_18681 108.643 81.790 -6.568 H 1 NIL_1    0.000
154 H_18682 110.282 81.589 -7.197 H 1 NIL_1    0.000
155 HP 109.653 78.880 -0.342 H 1 NIL_1    0.000
156 H_18181 109.995 80.616 -1.655 H 1 NIL_1    0.000
157 H_18182 111.545 79.976 -2.225 H 1 NIL_1    0.000
158 H_18161 107.846 78.771 -2.765 H 1 NIL_1    0.000
159 H_18162 108.608 77.618 -3.895 H 1 NIL_1    0.000
160 HH 118.642 74.016 2.049 H 1 NIL_1    0.000
161 HH 108.688 71.054 -4.280 H 1 NIL_1    0.000
162 HH 111.381 78.114 -4.260 H 1 NIL_1    0.000
@<TRIPOS>BOND
1 1 2 1 
2 3 1 1 
3 4 1 1 
4 5 10 1 
5 5 1 1 
6 5 162 1 
7 6 2 1 
8 7 3 1 
9 7 6 1 
10 7 155 1 
11 8 4 1 
12 9 4 2 
13 10 8 1 
14 11 6 1 
15 12 7 1 
16 13 8 1 
17 13 153 1 
18 13 154 1 
19 14 10 2 
20 15 11 2 
21 16 20 1 
22 16 11 1 
23 16 151 1 
24 16 152 1 
25 17 12 2 
26 18 12 1 
27 19 13 1 
28 20 25 1 
29 21 18 1 
30 21 27 1 
31 21 149 1 
32 21 150 1 
33 22 18 1 
34 22 28 1 
35 22 147 1 
36 22 148 1 
37 23 19 2 
38 23 146 1 
39 24 30 2 
40 24 19 1 
41 24 145 1 
42 25 31 1 
43 26 20 1 
44 26 33 1 
45 26 143 1 
46 26 144 1 
47 27 35 1 
48 28 141 1 
49 28 142 1 
50 29 23 1 
51 29 140 1 
52 30 37 1 
53 30 139 1 
54 31 138 1 
55 32 25 2 
56 33 136 1 
57 33 137 1 
58 34 27 2 
59 36 28 1 
60 37 29 2 
61 38 45 1 
62 38 31 1 
63 38 134 1 
64 38 135 1 
65 39 46 1 
66 39 31 1 
67 39 47 1 
68 40 33 1 
69 41 35 1 
70 41 49 1 
71 41 132 1 
72 41 133 1 
73 42 51 1 
74 42 35 1 
75 42 131 1 
76 43 36 1 
77 43 128 1 
78 43 129 1 
79 43 130 1 
80 44 37 1 
81 45 46 1 
82 46 126 1 
83 46 127 1 
84 48 40 1 
85 48 123 1 
86 48 124 1 
87 48 125 1 
88 50 42 1 
89 50 59 2 
90 51 49 1 
91 52 44 1 
92 52 118 1 
93 52 119 1 
94 52 120 1 
95 53 45 1 
96 54 63 1 
97 54 45 1 
98 54 161 1 
99 55 47 2 
100 56 60 1 
101 56 47 1 
102 56 116 1 
103 56 117 1 
104 57 49 1 
105 58 66 1 
106 58 49 1 
107 58 160 1 
108 60 50 1 
109 61 53 1 
110 62 53 2 
111 63 61 1 
112 64 57 1 
113 65 57 2 
114 66 64 1 
115 67 60 1 
116 67 72 1 
117 67 114 1 
118 67 115 1 
119 68 61 1 
120 68 112 1 
121 68 113 1 
122 69 63 2 
123 70 64 1 
124 70 74 1 
125 71 66 2 
126 73 68 1 
127 73 76 2 
128 73 77 1 
129 74 78 1 
130 75 72 1 
131 77 82 2 
132 79 84 1 
133 79 74 2 
134 79 104 1 
135 80 75 1 
136 81 76 1 
137 82 85 1 
138 83 78 2 
139 84 86 2 
140 84 97 1 
141 85 81 2 
142 86 88 1 
143 86 83 1 
144 87 85 1 
145 89 87 1 
146 89 96 1 
147 90 88 1 
148 91 90 1 
149 92 90 1 
150 93 90 1 
151 94 89 1 
152 95 89 1 
153 98 83 1 
154 99 82 1 
155 100 81 1 
156 101 80 1 
157 102 80 1 
158 103 80 1 
159 105 78 1 
160 106 77 1 
161 107 76 1 
162 108 72 1 
163 109 72 1 
164 110 70 1 
165 111 70 1 
166 121 51 1 
167 122 51 1 
168 156 3 1 
169 157 3 1 
170 158 2 1 
171 159 2 1 
@<TRIPOS>SUBSTRUCTURE
1 NIL_1 1 RESIDUE 1 A NIL 1
