@<TRIPOS>MOLECULE
NIL
162 171 1 0 0
POLYMER
CHARGES


@<TRIPOS>ATOM
1 CQ 104.956 73.6166 -10.1742 C.3 1 NIL_1    0.000
2 C_1816 104.123 72.781 -11.166 C.3 1 NIL_1    0.000
3 C_1818 105.926 72.632 -9.494 C.3 1 NIL_1    0.000
4 C_1854 104.082 74.330 -9.167 C.2 1 NIL_1    0.000
5 NH 105.637 74.766 -10.748 N.am 1 NIL_1    0.000
6 N 104.384 71.370 -10.844 N.am 1 NIL_1    0.000
7 CP 105.703 71.283 -10.205 C.3 1 NIL_1    0.000
8 N 104.396 75.646 -9.195 N.am 1 NIL_1    0.000
9 O 103.234 73.818 -8.461 O.2 1 NIL_1    0.000
10 C_1856 105.336 75.922 -10.129 C.2 1 NIL_1    0.000
11 C_1841 103.505 70.350 -11.056 C.2 1 NIL_1    0.000
12 C_1838 106.836 71.046 -11.210 C.2 1 NIL_1    0.000
13 C_1868 103.801 76.660 -8.309 C.3 1 NIL_1    0.000
14 O 105.828 77.006 -10.372 O.2 1 NIL_1    0.000
15 O 102.478 70.544 -11.679 O.2 1 NIL_1    0.000
16 C_1840 103.776 68.967 -10.455 C.3 1 NIL_1    0.000
17 O 106.727 71.422 -12.362 O.2 1 NIL_1    0.000
18 N 107.996 70.483 -10.756 N.am 1 NIL_1    0.000
19 C_1869 102.807 77.551 -9.028 C.2 1 NIL_1    0.000
20 N 103.724 68.768 -8.973 N.am 1 NIL_1    0.000
21 C_1829 108.051 69.766 -9.451 C.3 1 NIL_1    0.000
22 C_1871 109.276 70.740 -11.455 C.3 1 NIL_1    0.000
23 C_2204 101.641 77.065 -9.461 C.2 1 NIL_1    0.000
24 C_2212 103.079 78.843 -9.237 C.2 1 NIL_1    0.000
25 C_1843 103.807 67.546 -8.359 C.2 1 NIL_1    0.000
26 C_1872 103.185 69.899 -8.169 C.3 1 NIL_1    0.000
27 C_1830 109.117 68.726 -9.106 C.2 1 NIL_1    0.000
28 C_1876 110.198 71.719 -10.692 C.3 1 NIL_1    0.000
29 C_2206 100.770 77.852 -10.095 C.2 1 NIL_1    0.000
30 C_2210 102.209 79.633 -9.870 C.2 1 NIL_1    0.000
31 AP 103.612 66.227 -9.107 C.3 1 NIL_1    0.000
32 O 103.962 67.474 -7.155 O.2 1 NIL_1    0.000
33 C_1879 104.187 70.532 -7.180 C.3 1 NIL_1    0.000
34 O 110.202 68.671 -9.646 O.2 1 NIL_1    0.000
35 N 108.831 67.861 -8.085 N.am 1 NIL_1    0.000
36 O 109.512 72.957 -10.385 O.3 1 NIL_1    0.000
37 C_2208 101.042 79.142 -10.311 C.2 1 NIL_1    0.000
38 C_1827 102.100 65.996 -9.293 C.3 1 NIL_1    0.000
39 N 104.257 65.973 -10.417 N.am 1 NIL_1    0.000
40 O 103.930 70.037 -5.848 O.3 1 NIL_1    0.000
41 C_1813 109.888 67.369 -7.194 C.3 1 NIL_1    0.000
42 BP 107.598 67.798 -7.258 C.3 1 NIL_1    0.000
43 C_1878 109.286 73.864 -11.486 C.3 1 NIL_1    0.000
44 O 100.093 79.881 -10.974 O.3 1 NIL_1    0.000
45 AQ 102.033 65.056 -10.497 C.3 1 NIL_1    0.000
46 C_1825 103.234 65.475 -11.355 C.3 1 NIL_1    0.000
47 C_1844 105.577 66.058 -10.733 C.2 1 NIL_1    0.000
48 C_1881 104.778 70.607 -4.831 C.3 1 NIL_1    0.000
49 BQ 109.575 68.053 -5.854 C.3 1 NIL_1    0.000
50 C_1833 107.014 66.373 -7.202 C.2 1 NIL_1    0.000
51 C_1815 108.055 68.329 -5.880 C.3 1 NIL_1    0.000
52 C_2271 100.403 81.223 -11.424 C.3 1 NIL_1    0.000
53 C_1846 100.705 65.067 -11.215 C.2 1 NIL_1    0.000
54 NH 102.088 63.659 -10.105 N.am 1 NIL_1    0.000
55 O 105.963 65.807 -11.859 O.2 1 NIL_1    0.000
56 C_1835 106.583 66.461 -9.665 C.3 1 NIL_1    0.000
57 C_1850 110.043 67.261 -4.659 C.2 1 NIL_1    0.000
58 NH 110.352 69.267 -5.656 N.am 1 NIL_1    0.000
59 O 106.896 65.787 -6.141 O.2 1 NIL_1    0.000
60 N 106.684 65.735 -8.369 N.am 1 NIL_1    0.000
61 N 100.179 63.816 -11.140 N.am 1 NIL_1    0.000
62 O 100.205 66.036 -11.752 O.2 1 NIL_1    0.000
63 C_1848 101.001 62.967 -10.475 C.2 1 NIL_1    0.000
64 N 110.940 68.016 -3.985 N.am 1 NIL_1    0.000
65 O 109.687 66.139 -4.354 O.2 1 NIL_1    0.000
66 C_1852 111.132 69.225 -4.565 C.2 1 NIL_1    0.000
67 C_1870 106.485 64.256 -8.347 C.3 1 NIL_1    0.000
68 C_1866 98.855 63.379 -11.626 C.3 1 NIL_1    0.000
69 O 100.801 61.792 -10.235 O.2 1 NIL_1    0.000
70 C_1864 111.635 67.573 -2.768 C.3 1 NIL_1    0.000
71 O 111.867 70.116 -4.188 O.2 1 NIL_1    0.000
72 C_1873 106.638 63.427 -9.641 C.3 1 NIL_1    0.000
73 C_1867 97.978 64.280 -12.475 C.2 1 NIL_1    0.000
74 C_1865 112.853 66.722 -3.066 C.2 1 NIL_1    0.000
75 O 107.866 63.768 -10.321 O.3 1 NIL_1    0.000
76 C_2172 97.254 65.255 -11.916 C.2 1 NIL_1    0.000
77 C_2180 97.888 64.088 -13.794 C.2 1 NIL_1    0.000
78 C_2196 113.978 67.278 -3.524 C.2 1 NIL_1    0.000
79 C_2188 112.827 65.400 -2.867 C.2 1 NIL_1    0.000
80 C_1875 108.065 63.067 -11.565 C.3 1 NIL_1    0.000
81 C_2174 96.450 66.016 -12.661 C.2 1 NIL_1    0.000
82 C_2178 97.081 64.843 -14.539 C.2 1 NIL_1    0.000
83 C_2194 115.054 66.530 -3.773 C.2 1 NIL_1    0.000
84 C_2190 113.903 64.650 -3.113 C.2 1 NIL_1    0.000
85 C_2176 96.346 65.809 -13.975 C.2 1 NIL_1    0.000
86 C_2192 115.033 65.210 -3.570 C.2 1 NIL_1    0.000
87 O 95.494 66.599 -14.698 O.3 1 NIL_1    0.000
88 O 116.185 64.515 -3.844 O.3 1 NIL_1    0.000
89 C_2273 94.677 65.942 -15.700 C.3 1 NIL_1    0.000
90 C_2269 116.241 63.088 -3.607 C.3 1 NIL_1    0.000
91 H_22691 117.238 62.733 -3.877 H 1 NIL_1    0.000
92 H_22692 115.497 62.582 -4.229 H 1 NIL_1    0.000
93 H_22693 116.054 62.879 -2.549 H 1 NIL_1    0.000
94 H_22731 95.300 65.590 -16.526 H 1 NIL_1    0.000
95 H_22732 93.950 66.663 -16.082 H 1 NIL_1    0.000
96 H_22733 94.149 65.100 -15.245 H 1 NIL_1    0.000
97 H_2190 113.830 63.582 -2.926 H 1 NIL_1    0.000
98 H_2194 115.960 67.003 -4.142 H 1 NIL_1    0.000
99 H_2178 97.031 64.654 -15.607 H 1 NIL_1    0.000
100 H_2174 95.864 66.800 -12.185 H 1 NIL_1    0.000
101 H_18751 107.219 63.263 -12.231 H 1 NIL_1    0.000
102 H_18752 108.137 61.994 -11.366 H 1 NIL_1    0.000
103 H_18753 108.988 63.419 -12.032 H 1 NIL_1    0.000
104 H_2188 111.922 64.922 -2.496 H 1 NIL_1    0.000
105 H_2196 114.025 68.351 -3.699 H 1 NIL_1    0.000
106 H_2180 98.467 63.302 -14.273 H 1 NIL_1    0.000
107 H_2172 97.312 65.432 -10.845 H 1 NIL_1    0.000
108 H_18731 106.671 62.366 -9.381 H 1 NIL_1    0.000
109 H_18732 105.787 63.583 -10.306 H 1 NIL_1    0.000
110 H_18641 110.930 67.011 -2.150 H 1 NIL_1    0.000
111 H_18642 111.934 68.456 -2.197 H 1 NIL_1    0.000
112 H_18661 98.276 63.093 -10.743 H 1 NIL_1    0.000
113 H_18662 99.020 62.455 -12.189 H 1 NIL_1    0.000
114 H_18701 105.496 64.053 -7.929 H 1 NIL_1    0.000
115 H_18702 107.212 63.841 -7.642 H 1 NIL_1    0.000
116 H_18351 107.571 66.497 -10.131 H 1 NIL_1    0.000
117 H_18352 106.267 67.472 -9.440 H 1 NIL_1    0.000
118 H_22711 100.586 81.870 -10.562 H 1 NIL_1    0.000
119 H_22712 99.547 81.605 -11.986 H 1 NIL_1    0.000
120 H_22713 101.281 81.200 -12.076 H 1 NIL_1    0.000
121 H_18151 107.877 69.405 -5.841 H 1 NIL_1    0.000
122 H_18152 107.520 67.882 -5.039 H 1 NIL_1    0.000
123 H_18811 104.471 70.224 -3.855 H 1 NIL_1    0.000
124 H_18812 104.675 71.695 -4.850 H 1 NIL_1    0.000
125 H_18813 105.816 70.332 -5.030 H 1 NIL_1    0.000
126 H_18251 103.610 64.631 -11.943 H 1 NIL_1    0.000
127 H_18252 102.957 66.295 -12.025 H 1 NIL_1    0.000
128 H_18781 108.823 74.776 -11.100 H 1 NIL_1    0.000
129 H_18782 108.621 73.401 -12.219 H 1 NIL_1    0.000
130 H_18783 110.243 74.111 -11.953 H 1 NIL_1    0.000
131 HP 106.798 68.443 -7.619 H 1 NIL_1    0.000
132 H_18131 110.891 67.633 -7.546 H 1 NIL_1    0.000
133 H_18132 109.807 66.281 -7.104 H 1 NIL_1    0.000
134 H_18271 101.644 65.566 -8.398 H 1 NIL_1    0.000
135 H_18272 101.589 66.936 -9.524 H 1 NIL_1    0.000
136 H_18791 105.220 70.307 -7.451 H 1 NIL_1    0.000
137 H_18792 104.038 71.615 -7.163 H 1 NIL_1    0.000
138 HP 103.970 65.445 -8.434 H 1 NIL_1    0.000
139 H_2210 102.475 80.677 -10.015 H 1 NIL_1    0.000
140 H_2206 99.827 77.434 -10.441 H 1 NIL_1    0.000
141 H_18761 110.512 71.271 -9.746 H 1 NIL_1    0.000
142 H_18762 111.087 71.940 -11.289 H 1 NIL_1    0.000
143 H_18721 102.329 69.522 -7.602 H 1 NIL_1    0.000
144 H_18722 102.788 70.690 -8.804 H 1 NIL_1    0.000
145 H_2212 104.020 79.262 -8.888 H 1 NIL_1    0.000
146 H_2204 101.393 76.018 -9.302 H 1 NIL_1    0.000
147 H_18711 109.083 71.168 -12.440 H 1 NIL_1    0.000
148 H_18712 109.793 69.800 -11.646 H 1 NIL_1    0.000
149 H_18291 107.128 69.207 -9.416 H 1 NIL_1    0.000
150 H_18292 108.045 70.499 -8.639 H 1 NIL_1    0.000
151 H_18401 103.041 68.302 -10.914 H 1 NIL_1    0.000
152 H_18402 104.769 68.675 -10.804 H 1 NIL_1    0.000
153 H_18681 104.612 77.262 -7.891 H 1 NIL_1    0.000
154 H_18682 103.303 76.162 -7.473 H 1 NIL_1    0.000
155 HP 105.676 70.487 -9.472 H 1 NIL_1    0.000
156 H_18181 105.699 72.540 -8.431 H 1 NIL_1    0.000
157 H_18182 106.962 72.967 -9.568 H 1 NIL_1    0.000
158 H_18161 103.058 73.010 -11.075 H 1 NIL_1    0.000
159 H_18162 104.448 72.977 -12.191 H 1 NIL_1    0.000
160 HH 110.294 70.058 -6.280 H 1 NIL_1    0.000
161 HH 102.832 63.285 -9.535 H 1 NIL_1    0.000
162 HH 106.352 74.676 -11.454 H 1 NIL_1    0.000
@<TRIPOS>BOND
1 1 2 1 
2 3 1 1 
3 4 1 1 
4 5 10 1 
5 5 1 1 
6 5 162 1 
7 6 2 1 
8 7 3 1 
9 7 6 1 
10 7 155 1 
11 8 4 1 
12 9 4 2 
13 10 8 1 
14 11 6 1 
15 12 7 1 
16 13 8 1 
17 13 153 1 
18 13 154 1 
19 14 10 2 
20 15 11 2 
21 16 20 1 
22 16 11 1 
23 16 151 1 
24 16 152 1 
25 17 12 2 
26 18 12 1 
27 19 13 1 
28 20 25 1 
29 21 18 1 
30 21 27 1 
31 21 149 1 
32 21 150 1 
33 22 18 1 
34 22 28 1 
35 22 147 1 
36 22 148 1 
37 23 19 2 
38 23 146 1 
39 24 30 2 
40 24 19 1 
41 24 145 1 
42 25 31 1 
43 26 20 1 
44 26 33 1 
45 26 143 1 
46 26 144 1 
47 27 35 1 
48 28 141 1 
49 28 142 1 
50 29 23 1 
51 29 140 1 
52 30 37 1 
53 30 139 1 
54 31 138 1 
55 32 25 2 
56 33 136 1 
57 33 137 1 
58 34 27 2 
59 36 28 1 
60 37 29 2 
61 38 45 1 
62 38 31 1 
63 38 134 1 
64 38 135 1 
65 39 46 1 
66 39 31 1 
67 39 47 1 
68 40 33 1 
69 41 35 1 
70 41 49 1 
71 41 132 1 
72 41 133 1 
73 42 51 1 
74 42 35 1 
75 42 131 1 
76 43 36 1 
77 43 128 1 
78 43 129 1 
79 43 130 1 
80 44 37 1 
81 45 46 1 
82 46 126 1 
83 46 127 1 
84 48 40 1 
85 48 123 1 
86 48 124 1 
87 48 125 1 
88 50 42 1 
89 50 59 2 
90 51 49 1 
91 52 44 1 
92 52 118 1 
93 52 119 1 
94 52 120 1 
95 53 45 1 
96 54 63 1 
97 54 45 1 
98 54 161 1 
99 55 47 2 
100 56 60 1 
101 56 47 1 
102 56 116 1 
103 56 117 1 
104 57 49 1 
105 58 66 1 
106 58 49 1 
107 58 160 1 
108 60 50 1 
109 61 53 1 
110 62 53 2 
111 63 61 1 
112 64 57 1 
113 65 57 2 
114 66 64 1 
115 67 60 1 
116 67 72 1 
117 67 114 1 
118 67 115 1 
119 68 61 1 
120 68 112 1 
121 68 113 1 
122 69 63 2 
123 70 64 1 
124 70 74 1 
125 71 66 2 
126 73 68 1 
127 73 76 2 
128 73 77 1 
129 74 78 1 
130 75 72 1 
131 77 82 2 
132 79 84 1 
133 79 74 2 
134 79 104 1 
135 80 75 1 
136 81 76 1 
137 82 85 1 
138 83 78 2 
139 84 86 2 
140 84 97 1 
141 85 81 2 
142 86 88 1 
143 86 83 1 
144 87 85 1 
145 89 87 1 
146 89 96 1 
147 90 88 1 
148 91 90 1 
149 92 90 1 
150 93 90 1 
151 94 89 1 
152 95 89 1 
153 98 83 1 
154 99 82 1 
155 100 81 1 
156 101 80 1 
157 102 80 1 
158 103 80 1 
159 105 78 1 
160 106 77 1 
161 107 76 1 
162 108 72 1 
163 109 72 1 
164 110 70 1 
165 111 70 1 
166 121 51 1 
167 122 51 1 
168 156 3 1 
169 157 3 1 
170 158 2 1 
171 159 2 1 
@<TRIPOS>SUBSTRUCTURE
1 NIL_1 1 RESIDUE 1 A NIL 1
