@<TRIPOS>MOLECULE
NIL
162 171 1 0 0
POLYMER
CHARGES


@<TRIPOS>ATOM
1 CQ 92.7145 59.2775 -25.857 C.3 1 NIL_1    0.000
2 C_1816 91.659 58.470 -25.095 C.3 1 NIL_1    0.000
3 C_1818 94.014 58.484 -25.683 C.3 1 NIL_1    0.000
4 C_1854 92.806 60.676 -25.294 C.2 1 NIL_1    0.000
5 NH 92.357 59.594 -27.231 N.am 1 NIL_1    0.000
6 N 92.369 57.755 -24.023 N.am 1 NIL_1    0.000
7 CP 93.816 57.735 -24.344 C.3 1 NIL_1    0.000
8 N 92.471 61.544 -26.276 N.am 1 NIL_1    0.000
9 O 93.096 60.977 -24.152 O.2 1 NIL_1    0.000
10 C_1856 92.211 60.913 -27.446 C.2 1 NIL_1    0.000
11 C_1841 91.793 57.154 -22.942 C.2 1 NIL_1    0.000
12 C_1838 94.372 56.315 -24.422 C.2 1 NIL_1    0.000
13 C_1868 92.256 62.979 -26.046 C.3 1 NIL_1    0.000
14 O 91.899 61.429 -28.501 O.2 1 NIL_1    0.000
15 O 92.454 56.523 -22.141 O.2 1 NIL_1    0.000
16 C_1840 90.297 57.335 -22.726 C.3 1 NIL_1    0.000
17 O 93.992 55.567 -25.305 O.2 1 NIL_1    0.000
18 N 95.270 55.880 -23.489 N.am 1 NIL_1    0.000
19 C_1869 90.890 63.154 -25.407 C.2 1 NIL_1    0.000
20 N 89.641 56.124 -22.175 N.am 1 NIL_1    0.000
21 C_1829 95.785 54.497 -23.521 C.3 1 NIL_1    0.000
22 C_1871 95.681 56.593 -22.257 C.3 1 NIL_1    0.000
23 C_2204 90.783 63.399 -24.096 C.2 1 NIL_1    0.000
24 C_2212 89.773 63.030 -26.130 C.2 1 NIL_1    0.000
25 C_1843 89.450 55.963 -20.823 C.2 1 NIL_1    0.000
26 C_1872 89.244 55.215 -23.281 C.3 1 NIL_1    0.000
27 C_1830 94.902 53.524 -22.754 C.2 1 NIL_1    0.000
28 C_1876 97.039 57.301 -22.374 C.3 1 NIL_1    0.000
29 C_2206 89.586 63.527 -23.522 C.2 1 NIL_1    0.000
30 C_2210 88.573 63.152 -25.557 C.2 1 NIL_1    0.000
31 AP 88.855 54.696 -20.189 C.3 1 NIL_1    0.000
32 O 89.786 56.850 -20.062 O.2 1 NIL_1    0.000
33 C_1879 87.767 55.352 -23.714 C.3 1 NIL_1    0.000
34 O 94.066 53.907 -21.957 O.2 1 NIL_1    0.000
35 N 95.099 52.200 -22.983 N.am 1 NIL_1    0.000
36 O 97.407 57.754 -21.053 O.3 1 NIL_1    0.000
37 C_2208 88.473 63.414 -24.250 C.2 1 NIL_1    0.000
38 C_1827 87.325 54.808 -20.029 C.3 1 NIL_1    0.000
39 N 89.152 53.388 -20.802 N.am 1 NIL_1    0.000
40 O 87.464 56.694 -24.164 O.3 1 NIL_1    0.000
41 C_1813 96.072 51.630 -23.920 C.3 1 NIL_1    0.000
42 BP 94.303 51.120 -22.369 C.3 1 NIL_1    0.000
43 C_1878 98.750 58.266 -20.920 C.3 1 NIL_1    0.000
44 O 87.259 63.547 -23.637 O.3 1 NIL_1    0.000
45 AQ 86.816 53.376 -20.260 C.3 1 NIL_1    0.000
46 C_1825 87.887 52.720 -21.144 C.3 1 NIL_1    0.000
47 C_1844 90.406 52.886 -20.953 C.2 1 NIL_1    0.000
48 C_1881 87.862 57.017 -25.516 C.3 1 NIL_1    0.000
49 BQ 96.152 50.132 -23.605 C.3 1 NIL_1    0.000
50 C_1833 92.801 51.312 -22.588 C.2 1 NIL_1    0.000
51 C_1815 94.791 49.789 -22.979 C.3 1 NIL_1    0.000
52 C_2271 86.392 64.572 -24.176 C.3 1 NIL_1    0.000
53 C_1846 85.422 53.298 -20.833 C.2 1 NIL_1    0.000
54 NH 86.610 52.617 -19.034 N.am 1 NIL_1    0.000
55 O 91.376 53.517 -20.575 O.2 1 NIL_1    0.000
56 C_1835 90.543 51.523 -21.620 C.3 1 NIL_1    0.000
57 C_1850 96.512 49.309 -24.818 C.2 1 NIL_1    0.000
58 NH 97.294 49.816 -22.761 N.am 1 NIL_1    0.000
59 O 92.400 51.767 -23.645 O.2 1 NIL_1    0.000
60 N 91.928 50.993 -21.586 N.am 1 NIL_1    0.000
61 N 84.675 52.506 -20.022 N.am 1 NIL_1    0.000
62 O 85.033 53.867 -21.835 O.2 1 NIL_1    0.000
63 C_1848 85.377 52.092 -18.940 C.2 1 NIL_1    0.000
64 N 97.713 48.726 -24.598 N.am 1 NIL_1    0.000
65 O 95.852 49.204 -25.834 O.2 1 NIL_1    0.000
66 C_1852 98.210 49.046 -23.375 C.2 1 NIL_1    0.000
67 C_1870 92.343 50.405 -20.281 C.3 1 NIL_1    0.000
68 C_1866 83.257 52.157 -20.246 C.3 1 NIL_1    0.000
69 O 84.977 51.385 -18.036 O.2 1 NIL_1    0.000
70 C_1864 98.403 47.925 -25.630 C.3 1 NIL_1    0.000
71 O 99.280 48.726 -22.896 O.2 1 NIL_1    0.000
72 C_1873 91.337 49.514 -19.507 C.3 1 NIL_1    0.000
73 C_1867 82.824 51.964 -21.689 C.2 1 NIL_1    0.000
74 C_1865 99.469 46.936 -25.195 C.2 1 NIL_1    0.000
75 O 91.252 48.191 -20.090 O.3 1 NIL_1    0.000
76 C_2172 81.752 52.604 -22.166 C.2 1 NIL_1    0.000
77 C_2180 83.511 51.163 -22.510 C.2 1 NIL_1    0.000
78 C_2196 99.174 45.939 -24.353 C.2 1 NIL_1    0.000
79 C_2188 100.719 47.038 -25.657 C.2 1 NIL_1    0.000
80 C_1875 90.488 48.043 -21.307 C.3 1 NIL_1    0.000
81 C_2174 81.384 52.458 -23.439 C.2 1 NIL_1    0.000
82 C_2178 83.147 51.018 -23.785 C.2 1 NIL_1    0.000
83 C_2194 100.110 45.067 -23.977 C.2 1 NIL_1    0.000
84 C_2190 101.657 46.169 -25.280 C.2 1 NIL_1    0.000
85 C_2176 82.081 51.674 -24.264 C.2 1 NIL_1    0.000
86 C_2192 101.363 45.180 -24.432 C.2 1 NIL_1    0.000
87 O 81.662 51.574 -25.564 O.3 1 NIL_1    0.000
88 O 102.344 44.295 -24.080 O.3 1 NIL_1    0.000
89 C_2273 82.671 51.403 -26.589 C.3 1 NIL_1    0.000
90 C_2269 102.584 44.135 -22.661 C.3 1 NIL_1    0.000
91 H_22691 103.411 43.433 -22.529 H 1 NIL_1    0.000
92 H_22692 101.692 43.740 -22.169 H 1 NIL_1    0.000
93 H_22693 102.854 45.102 -22.227 H 1 NIL_1    0.000
94 H_22731 83.122 50.410 -26.505 H 1 NIL_1    0.000
95 H_22732 83.437 52.177 -26.481 H 1 NIL_1    0.000
96 H_22733 82.191 51.498 -27.568 H 1 NIL_1    0.000
97 H_2190 102.667 46.271 -25.667 H 1 NIL_1    0.000
98 H_2194 99.841 44.259 -23.299 H 1 NIL_1    0.000
99 H_2178 83.733 50.361 -24.420 H 1 NIL_1    0.000
100 H_2174 80.512 52.992 -23.807 H 1 NIL_1    0.000
101 H_18751 90.461 46.985 -21.577 H 1 NIL_1    0.000
102 H_18752 90.962 48.605 -22.115 H 1 NIL_1    0.000
103 H_18753 89.470 48.404 -21.143 H 1 NIL_1    0.000
104 H_2188 100.979 47.834 -26.350 H 1 NIL_1    0.000
105 H_2196 98.161 45.834 -23.970 H 1 NIL_1    0.000
106 H_2180 84.385 50.630 -22.142 H 1 NIL_1    0.000
107 H_2172 81.171 53.256 -21.518 H 1 NIL_1    0.000
108 H_18731 91.725 49.379 -18.495 H 1 NIL_1    0.000
109 H_18732 90.345 49.961 -19.417 H 1 NIL_1    0.000
110 H_18641 98.839 48.635 -26.339 H 1 NIL_1    0.000
111 H_18642 97.639 47.366 -26.175 H 1 NIL_1    0.000
112 H_18661 82.657 52.948 -19.786 H 1 NIL_1    0.000
113 H_18662 83.040 51.232 -19.704 H 1 NIL_1    0.000
114 H_18701 92.627 51.234 -19.629 H 1 NIL_1    0.000
115 H_18702 93.230 49.787 -20.432 H 1 NIL_1    0.000
116 H_18351 89.850 50.830 -21.149 H 1 NIL_1    0.000
117 H_18352 90.208 51.647 -22.653 H 1 NIL_1    0.000
118 H_22711 85.463 64.578 -23.602 H 1 NIL_1    0.000
119 H_22712 86.167 64.365 -25.225 H 1 NIL_1    0.000
120 H_22713 86.880 65.547 -24.088 H 1 NIL_1    0.000
121 H_18151 94.863 48.997 -22.229 H 1 NIL_1    0.000
122 H_18152 94.098 49.463 -23.759 H 1 NIL_1    0.000
123 H_18811 87.344 56.353 -26.214 H 1 NIL_1    0.000
124 H_18812 88.943 56.899 -25.629 H 1 NIL_1    0.000
125 H_18813 87.586 58.054 -25.726 H 1 NIL_1    0.000
126 H_18251 87.931 51.645 -20.954 H 1 NIL_1    0.000
127 H_18252 87.671 52.894 -22.201 H 1 NIL_1    0.000
128 H_18781 98.907 58.570 -19.881 H 1 NIL_1    0.000
129 H_18782 98.880 59.127 -21.580 H 1 NIL_1    0.000
130 H_18783 99.465 57.480 -21.181 H 1 NIL_1    0.000
131 HP 94.532 51.145 -21.302 H 1 NIL_1    0.000
132 H_18131 97.050 52.107 -23.808 H 1 NIL_1    0.000
133 H_18132 95.699 51.787 -24.936 H 1 NIL_1    0.000
134 H_18271 87.049 55.191 -19.043 H 1 NIL_1    0.000
135 H_18272 86.913 55.487 -20.775 H 1 NIL_1    0.000
136 H_18791 87.546 54.648 -24.521 H 1 NIL_1    0.000
137 H_18792 87.115 55.125 -22.872 H 1 NIL_1    0.000
138 HP 89.279 54.647 -19.182 H 1 NIL_1    0.000
139 H_2210 87.679 63.028 -26.162 H 1 NIL_1    0.000
140 H_2206 89.524 63.727 -22.455 H 1 NIL_1    0.000
141 H_18761 97.798 56.599 -22.732 H 1 NIL_1    0.000
142 H_18762 96.974 58.156 -23.052 H 1 NIL_1    0.000
143 H_18721 89.449 54.180 -23.035 H 1 NIL_1    0.000
144 H_18722 89.870 55.425 -24.153 H 1 NIL_1    0.000
145 H_2212 89.831 62.820 -27.196 H 1 NIL_1    0.000
146 H_2204 91.678 63.486 -23.485 H 1 NIL_1    0.000
147 H_18711 95.755 55.864 -21.447 H 1 NIL_1    0.000
148 H_18712 94.921 57.311 -21.950 H 1 NIL_1    0.000
149 H_18291 96.786 54.455 -23.080 H 1 NIL_1    0.000
150 H_18292 95.857 54.160 -24.559 H 1 NIL_1    0.000
151 H_18401 90.167 58.191 -22.056 H 1 NIL_1    0.000
152 H_18402 89.824 57.594 -23.672 H 1 NIL_1    0.000
153 H_18681 92.313 63.525 -26.992 H 1 NIL_1    0.000
154 H_18682 93.041 63.361 -25.390 H 1 NIL_1    0.000
155 HP 94.336 58.310 -23.580 H 1 NIL_1    0.000
156 H_18181 94.898 59.126 -25.668 H 1 NIL_1    0.000
157 H_18182 94.120 57.783 -26.516 H 1 NIL_1    0.000
158 H_18161 90.885 59.132 -24.696 H 1 NIL_1    0.000
159 H_18162 91.203 57.730 -25.758 H 1 NIL_1    0.000
160 HH 97.419 50.220 -21.845 H 1 NIL_1    0.000
161 HH 87.346 52.446 -18.366 H 1 NIL_1    0.000
162 HH 92.207 58.884 -27.932 H 1 NIL_1    0.000
@<TRIPOS>BOND
1 1 2 1 
2 3 1 1 
3 4 1 1 
4 5 10 1 
5 5 1 1 
6 5 162 1 
7 6 2 1 
8 7 3 1 
9 7 6 1 
10 7 155 1 
11 8 4 1 
12 9 4 2 
13 10 8 1 
14 11 6 1 
15 12 7 1 
16 13 8 1 
17 13 153 1 
18 13 154 1 
19 14 10 2 
20 15 11 2 
21 16 20 1 
22 16 11 1 
23 16 151 1 
24 16 152 1 
25 17 12 2 
26 18 12 1 
27 19 13 1 
28 20 25 1 
29 21 18 1 
30 21 27 1 
31 21 149 1 
32 21 150 1 
33 22 18 1 
34 22 28 1 
35 22 147 1 
36 22 148 1 
37 23 19 2 
38 23 146 1 
39 24 30 2 
40 24 19 1 
41 24 145 1 
42 25 31 1 
43 26 20 1 
44 26 33 1 
45 26 143 1 
46 26 144 1 
47 27 35 1 
48 28 141 1 
49 28 142 1 
50 29 23 1 
51 29 140 1 
52 30 37 1 
53 30 139 1 
54 31 138 1 
55 32 25 2 
56 33 136 1 
57 33 137 1 
58 34 27 2 
59 36 28 1 
60 37 29 2 
61 38 45 1 
62 38 31 1 
63 38 134 1 
64 38 135 1 
65 39 46 1 
66 39 31 1 
67 39 47 1 
68 40 33 1 
69 41 35 1 
70 41 49 1 
71 41 132 1 
72 41 133 1 
73 42 51 1 
74 42 35 1 
75 42 131 1 
76 43 36 1 
77 43 128 1 
78 43 129 1 
79 43 130 1 
80 44 37 1 
81 45 46 1 
82 46 126 1 
83 46 127 1 
84 48 40 1 
85 48 123 1 
86 48 124 1 
87 48 125 1 
88 50 42 1 
89 50 59 2 
90 51 49 1 
91 52 44 1 
92 52 118 1 
93 52 119 1 
94 52 120 1 
95 53 45 1 
96 54 63 1 
97 54 45 1 
98 54 161 1 
99 55 47 2 
100 56 60 1 
101 56 47 1 
102 56 116 1 
103 56 117 1 
104 57 49 1 
105 58 66 1 
106 58 49 1 
107 58 160 1 
108 60 50 1 
109 61 53 1 
110 62 53 2 
111 63 61 1 
112 64 57 1 
113 65 57 2 
114 66 64 1 
115 67 60 1 
116 67 72 1 
117 67 114 1 
118 67 115 1 
119 68 61 1 
120 68 112 1 
121 68 113 1 
122 69 63 2 
123 70 64 1 
124 70 74 1 
125 71 66 2 
126 73 68 1 
127 73 76 2 
128 73 77 1 
129 74 78 1 
130 75 72 1 
131 77 82 2 
132 79 84 1 
133 79 74 2 
134 79 104 1 
135 80 75 1 
136 81 76 1 
137 82 85 1 
138 83 78 2 
139 84 86 2 
140 84 97 1 
141 85 81 2 
142 86 88 1 
143 86 83 1 
144 87 85 1 
145 89 87 1 
146 89 96 1 
147 90 88 1 
148 91 90 1 
149 92 90 1 
150 93 90 1 
151 94 89 1 
152 95 89 1 
153 98 83 1 
154 99 82 1 
155 100 81 1 
156 101 80 1 
157 102 80 1 
158 103 80 1 
159 105 78 1 
160 106 77 1 
161 107 76 1 
162 108 72 1 
163 109 72 1 
164 110 70 1 
165 111 70 1 
166 121 51 1 
167 122 51 1 
168 156 3 1 
169 157 3 1 
170 158 2 1 
171 159 2 1 
@<TRIPOS>SUBSTRUCTURE
1 NIL_1 1 RESIDUE 1 A NIL 1
