@<TRIPOS>MOLECULE
NIL
162 171 1 0 0
POLYMER
CHARGES


@<TRIPOS>ATOM
1 CQ 98.4777 67.6472 -16.5946 C.3 1 NIL_1    0.000
2 C_1816 98.098 66.349 -17.334 C.3 1 NIL_1    0.000
3 C_1818 97.893 67.460 -15.185 C.3 1 NIL_1    0.000
4 C_1854 98.019 68.915 -17.279 C.2 1 NIL_1    0.000
5 NH 99.909 67.908 -16.573 N.am 1 NIL_1    0.000
6 N 97.844 65.321 -16.309 N.am 1 NIL_1    0.000
7 CP 97.908 65.936 -14.964 C.3 1 NIL_1    0.000
8 N 99.103 69.699 -17.492 N.am 1 NIL_1    0.000
9 O 96.875 69.192 -17.586 O.2 1 NIL_1    0.000
10 C_1856 100.243 69.111 -17.062 C.2 1 NIL_1    0.000
11 C_1841 97.552 64.020 -16.591 C.2 1 NIL_1    0.000
12 C_1838 99.170 65.485 -14.219 C.2 1 NIL_1    0.000
13 C_1868 99.052 71.030 -18.121 C.3 1 NIL_1    0.000
14 O 101.366 69.572 -17.098 O.2 1 NIL_1    0.000
15 O 97.542 63.609 -17.734 O.2 1 NIL_1    0.000
16 C_1840 97.194 63.138 -15.401 C.3 1 NIL_1    0.000
17 O 100.270 65.689 -14.699 O.2 1 NIL_1    0.000
18 N 99.059 64.817 -13.030 N.am 1 NIL_1    0.000
19 C_1869 98.396 72.075 -17.240 C.2 1 NIL_1    0.000
20 N 97.018 61.684 -15.618 N.am 1 NIL_1    0.000
21 C_1829 100.186 64.027 -12.484 C.3 1 NIL_1    0.000
22 C_1871 97.819 64.656 -12.238 C.3 1 NIL_1    0.000
23 C_2204 98.995 72.491 -16.119 C.2 1 NIL_1    0.000
24 C_2212 97.216 72.604 -17.576 C.2 1 NIL_1    0.000
25 C_1843 95.916 61.069 -15.087 C.2 1 NIL_1    0.000
26 C_1872 98.274 61.043 -16.085 C.3 1 NIL_1    0.000
27 C_1830 100.496 62.778 -13.311 C.2 1 NIL_1    0.000
28 C_1876 97.445 65.937 -11.461 C.3 1 NIL_1    0.000
29 C_2206 98.420 73.414 -15.346 C.2 1 NIL_1    0.000
30 C_2210 96.639 73.526 -16.803 C.2 1 NIL_1    0.000
31 AP 95.914 59.620 -14.592 C.3 1 NIL_1    0.000
32 O 94.883 61.697 -14.946 O.2 1 NIL_1    0.000
33 C_1879 98.125 60.369 -17.459 C.3 1 NIL_1    0.000
34 O 100.637 62.852 -14.517 O.2 1 NIL_1    0.000
35 N 100.685 61.587 -12.681 N.am 1 NIL_1    0.000
36 O 98.542 66.364 -10.616 O.3 1 NIL_1    0.000
37 C_2208 97.235 73.931 -15.677 C.2 1 NIL_1    0.000
38 C_1827 95.370 58.674 -15.678 C.3 1 NIL_1    0.000
39 N 97.139 59.017 -14.021 N.am 1 NIL_1    0.000
40 O 99.434 60.019 -17.956 O.3 1 NIL_1    0.000
41 C_1813 101.277 60.422 -13.358 C.3 1 NIL_1    0.000
42 BP 100.607 61.313 -11.234 C.3 1 NIL_1    0.000
43 C_1878 98.763 65.600 -9.410 C.3 1 NIL_1    0.000
44 O 96.667 74.875 -14.872 O.3 1 NIL_1    0.000
45 AQ 96.106 57.347 -15.442 C.3 1 NIL_1    0.000
46 C_1825 97.389 57.728 -14.688 C.3 1 NIL_1    0.000
47 C_1844 97.852 59.442 -12.939 C.2 1 NIL_1    0.000
48 C_1881 99.432 59.485 -19.295 C.3 1 NIL_1    0.000
49 BQ 102.001 59.609 -12.276 C.3 1 NIL_1    0.000
50 C_1833 99.267 61.407 -10.488 C.2 1 NIL_1    0.000
51 C_1815 101.241 59.925 -10.980 C.3 1 NIL_1    0.000
52 C_2271 95.387 74.509 -14.301 C.3 1 NIL_1    0.000
53 C_1846 96.343 56.583 -16.722 C.2 1 NIL_1    0.000
54 NH 95.305 56.361 -14.728 N.am 1 NIL_1    0.000
55 O 98.626 58.688 -12.389 O.2 1 NIL_1    0.000
56 C_1835 97.676 60.874 -12.455 C.3 1 NIL_1    0.000
57 C_1850 102.109 58.138 -12.608 C.2 1 NIL_1    0.000
58 NH 103.418 59.935 -12.191 N.am 1 NIL_1    0.000
59 O 99.324 61.753 -9.323 O.2 1 NIL_1    0.000
60 N 98.041 61.111 -11.037 N.am 1 NIL_1    0.000
61 N 95.663 55.416 -16.651 N.am 1 NIL_1    0.000
62 O 97.007 56.957 -17.671 O.2 1 NIL_1    0.000
63 C_1848 95.048 55.261 -15.456 C.2 1 NIL_1    0.000
64 N 103.422 57.821 -12.690 N.am 1 NIL_1    0.000
65 O 101.188 57.365 -12.790 O.2 1 NIL_1    0.000
66 C_1852 104.219 58.885 -12.438 C.2 1 NIL_1    0.000
67 C_1870 96.836 60.983 -10.182 C.3 1 NIL_1    0.000
68 C_1866 95.481 54.510 -17.798 C.3 1 NIL_1    0.000
69 O 94.377 54.314 -15.096 O.2 1 NIL_1    0.000
70 C_1864 103.919 56.490 -13.069 C.3 1 NIL_1    0.000
71 O 105.433 58.907 -12.434 O.2 1 NIL_1    0.000
72 C_1873 96.026 62.291 -10.088 C.3 1 NIL_1    0.000
73 C_1867 94.472 55.150 -18.734 C.2 1 NIL_1    0.000
74 C_1865 103.923 55.492 -11.929 C.2 1 NIL_1    0.000
75 O 94.836 62.046 -9.308 O.3 1 NIL_1    0.000
76 C_2172 94.875 55.770 -19.848 C.2 1 NIL_1    0.000
77 C_2180 93.168 55.141 -18.440 C.2 1 NIL_1    0.000
78 C_2196 104.904 55.500 -11.024 C.2 1 NIL_1    0.000
79 C_2188 102.958 54.573 -11.822 C.2 1 NIL_1    0.000
80 C_1875 93.981 63.196 -9.126 C.3 1 NIL_1    0.000
81 C_2174 93.994 56.378 -20.644 C.2 1 NIL_1    0.000
82 C_2178 92.284 55.747 -19.234 C.2 1 NIL_1    0.000
83 C_2194 104.930 54.605 -10.035 C.2 1 NIL_1    0.000
84 C_2190 102.981 53.677 -10.834 C.2 1 NIL_1    0.000
85 C_2176 92.693 56.380 -20.341 C.2 1 NIL_1    0.000
86 C_2192 103.967 53.676 -9.932 C.2 1 NIL_1    0.000
87 O 91.831 57.024 -21.187 O.3 1 NIL_1    0.000
88 O 103.928 52.713 -8.955 O.3 1 NIL_1    0.000
89 C_2273 90.789 57.828 -20.582 C.3 1 NIL_1    0.000
90 C_2269 105.064 52.532 -8.072 C.3 1 NIL_1    0.000
91 H_22691 105.200 53.428 -7.462 H 1 NIL_1    0.000
92 H_22692 105.963 52.334 -8.663 H 1 NIL_1    0.000
93 H_22693 104.865 51.678 -7.420 H 1 NIL_1    0.000
94 H_22731 91.235 58.514 -19.856 H 1 NIL_1    0.000
95 H_22732 90.056 57.185 -20.089 H 1 NIL_1    0.000
96 H_22733 90.291 58.403 -21.365 H 1 NIL_1    0.000
97 H_2190 102.187 52.936 -10.770 H 1 NIL_1    0.000
98 H_2194 105.751 54.649 -9.324 H 1 NIL_1    0.000
99 H_2178 91.233 55.720 -18.964 H 1 NIL_1    0.000
100 H_2174 94.344 56.887 -21.540 H 1 NIL_1    0.000
101 H_18751 93.589 63.520 -10.094 H 1 NIL_1    0.000
102 H_18752 94.556 64.005 -8.668 H 1 NIL_1    0.000
103 H_18753 93.153 62.918 -8.468 H 1 NIL_1    0.000
104 H_2188 102.148 54.544 -12.548 H 1 NIL_1    0.000
105 H_2196 105.698 56.240 -11.093 H 1 NIL_1    0.000
106 H_2180 92.817 54.645 -17.537 H 1 NIL_1    0.000
107 H_2172 95.931 55.796 -20.107 H 1 NIL_1    0.000
108 H_18731 96.619 63.061 -9.589 H 1 NIL_1    0.000
109 H_18732 95.734 62.633 -11.086 H 1 NIL_1    0.000
110 H_18641 104.935 56.590 -13.459 H 1 NIL_1    0.000
111 H_18642 103.300 56.114 -13.888 H 1 NIL_1    0.000
112 H_18661 95.122 53.535 -17.454 H 1 NIL_1    0.000
113 H_18662 96.441 54.365 -18.303 H 1 NIL_1    0.000
114 H_18701 97.127 60.674 -9.176 H 1 NIL_1    0.000
115 H_18702 96.194 60.192 -10.581 H 1 NIL_1    0.000
116 H_18351 98.236 61.530 -13.117 H 1 NIL_1    0.000
117 H_18352 96.621 61.128 -12.581 H 1 NIL_1    0.000
118 H_22711 95.502 73.593 -13.715 H 1 NIL_1    0.000
119 H_22712 94.648 74.354 -15.092 H 1 NIL_1    0.000
120 H_22713 95.051 75.317 -13.646 H 1 NIL_1    0.000
121 H_18151 101.902 59.945 -10.107 H 1 NIL_1    0.000
122 H_18152 100.473 59.172 -10.795 H 1 NIL_1    0.000
123 H_18811 98.803 58.592 -19.329 H 1 NIL_1    0.000
124 H_18812 100.456 59.225 -19.581 H 1 NIL_1    0.000
125 H_18813 99.038 60.240 -19.981 H 1 NIL_1    0.000
126 H_18251 97.658 56.955 -13.962 H 1 NIL_1    0.000
127 H_18252 98.214 57.865 -15.391 H 1 NIL_1    0.000
128 H_18781 98.919 64.546 -9.655 H 1 NIL_1    0.000
129 H_18782 97.896 65.704 -8.751 H 1 NIL_1    0.000
130 H_18783 99.652 65.992 -8.911 H 1 NIL_1    0.000
131 HP 101.264 62.048 -10.758 H 1 NIL_1    0.000
132 H_18131 101.982 60.733 -14.135 H 1 NIL_1    0.000
133 H_18132 100.477 59.833 -13.815 H 1 NIL_1    0.000
134 H_18271 94.285 58.564 -15.602 H 1 NIL_1    0.000
135 H_18272 95.589 59.068 -16.671 H 1 NIL_1    0.000
136 H_18791 97.533 59.459 -17.380 H 1 NIL_1    0.000
137 H_18792 97.649 61.054 -18.167 H 1 NIL_1    0.000
138 HP 95.186 59.607 -13.776 H 1 NIL_1    0.000
139 H_2210 95.683 73.949 -17.101 H 1 NIL_1    0.000
140 H_2206 98.923 73.743 -14.439 H 1 NIL_1    0.000
141 H_18761 97.234 66.740 -12.170 H 1 NIL_1    0.000
142 H_18762 96.557 65.769 -10.847 H 1 NIL_1    0.000
143 H_18721 98.661 60.334 -15.357 H 1 NIL_1    0.000
144 H_18722 99.043 61.811 -16.194 H 1 NIL_1    0.000
145 H_2212 96.717 72.287 -18.489 H 1 NIL_1    0.000
146 H_2204 99.958 72.077 -15.831 H 1 NIL_1    0.000
147 H_18711 97.945 63.846 -11.519 H 1 NIL_1    0.000
148 H_18712 96.991 64.355 -12.882 H 1 NIL_1    0.000
149 H_18291 99.997 63.757 -11.447 H 1 NIL_1    0.000
150 H_18292 101.089 64.642 -12.496 H 1 NIL_1    0.000
151 H_18401 97.998 63.232 -14.681 H 1 NIL_1    0.000
152 H_18402 96.297 63.579 -14.961 H 1 NIL_1    0.000
153 H_18681 98.513 70.941 -19.068 H 1 NIL_1    0.000
154 H_18682 100.070 71.357 -18.356 H 1 NIL_1    0.000
155 HP 97.012 65.667 -14.405 H 1 NIL_1    0.000
156 H_18181 96.855 67.803 -15.167 H 1 NIL_1    0.000
157 H_18182 98.444 68.009 -14.417 H 1 NIL_1    0.000
158 H_18161 97.180 66.491 -17.908 H 1 NIL_1    0.000
159 H_18162 98.899 66.029 -18.006 H 1 NIL_1    0.000
160 HH 103.752 60.858 -11.960 H 1 NIL_1    0.000
161 HH 94.989 56.498 -13.779 H 1 NIL_1    0.000
162 HH 100.568 67.263 -16.166 H 1 NIL_1    0.000
@<TRIPOS>BOND
1 1 2 1 
2 3 1 1 
3 4 1 1 
4 5 10 1 
5 5 1 1 
6 5 162 1 
7 6 2 1 
8 7 3 1 
9 7 6 1 
10 7 155 1 
11 8 4 1 
12 9 4 2 
13 10 8 1 
14 11 6 1 
15 12 7 1 
16 13 8 1 
17 13 153 1 
18 13 154 1 
19 14 10 2 
20 15 11 2 
21 16 20 1 
22 16 11 1 
23 16 151 1 
24 16 152 1 
25 17 12 2 
26 18 12 1 
27 19 13 1 
28 20 25 1 
29 21 18 1 
30 21 27 1 
31 21 149 1 
32 21 150 1 
33 22 18 1 
34 22 28 1 
35 22 147 1 
36 22 148 1 
37 23 19 2 
38 23 146 1 
39 24 30 2 
40 24 19 1 
41 24 145 1 
42 25 31 1 
43 26 20 1 
44 26 33 1 
45 26 143 1 
46 26 144 1 
47 27 35 1 
48 28 141 1 
49 28 142 1 
50 29 23 1 
51 29 140 1 
52 30 37 1 
53 30 139 1 
54 31 138 1 
55 32 25 2 
56 33 136 1 
57 33 137 1 
58 34 27 2 
59 36 28 1 
60 37 29 2 
61 38 45 1 
62 38 31 1 
63 38 134 1 
64 38 135 1 
65 39 46 1 
66 39 31 1 
67 39 47 1 
68 40 33 1 
69 41 35 1 
70 41 49 1 
71 41 132 1 
72 41 133 1 
73 42 51 1 
74 42 35 1 
75 42 131 1 
76 43 36 1 
77 43 128 1 
78 43 129 1 
79 43 130 1 
80 44 37 1 
81 45 46 1 
82 46 126 1 
83 46 127 1 
84 48 40 1 
85 48 123 1 
86 48 124 1 
87 48 125 1 
88 50 42 1 
89 50 59 2 
90 51 49 1 
91 52 44 1 
92 52 118 1 
93 52 119 1 
94 52 120 1 
95 53 45 1 
96 54 63 1 
97 54 45 1 
98 54 161 1 
99 55 47 2 
100 56 60 1 
101 56 47 1 
102 56 116 1 
103 56 117 1 
104 57 49 1 
105 58 66 1 
106 58 49 1 
107 58 160 1 
108 60 50 1 
109 61 53 1 
110 62 53 2 
111 63 61 1 
112 64 57 1 
113 65 57 2 
114 66 64 1 
115 67 60 1 
116 67 72 1 
117 67 114 1 
118 67 115 1 
119 68 61 1 
120 68 112 1 
121 68 113 1 
122 69 63 2 
123 70 64 1 
124 70 74 1 
125 71 66 2 
126 73 68 1 
127 73 76 2 
128 73 77 1 
129 74 78 1 
130 75 72 1 
131 77 82 2 
132 79 84 1 
133 79 74 2 
134 79 104 1 
135 80 75 1 
136 81 76 1 
137 82 85 1 
138 83 78 2 
139 84 86 2 
140 84 97 1 
141 85 81 2 
142 86 88 1 
143 86 83 1 
144 87 85 1 
145 89 87 1 
146 89 96 1 
147 90 88 1 
148 91 90 1 
149 92 90 1 
150 93 90 1 
151 94 89 1 
152 95 89 1 
153 98 83 1 
154 99 82 1 
155 100 81 1 
156 101 80 1 
157 102 80 1 
158 103 80 1 
159 105 78 1 
160 106 77 1 
161 107 76 1 
162 108 72 1 
163 109 72 1 
164 110 70 1 
165 111 70 1 
166 121 51 1 
167 122 51 1 
168 156 3 1 
169 157 3 1 
170 158 2 1 
171 159 2 1 
@<TRIPOS>SUBSTRUCTURE
1 NIL_1 1 RESIDUE 1 A NIL 1
