@<TRIPOS>MOLECULE
NIL
162 171 1 0 0
POLYMER
CHARGES


@<TRIPOS>ATOM
1 CQ 89.574 56.0998 -31.2708 C.3 1 NIL_1    0.000
2 C_1816 88.357 55.206 -31.569 C.3 1 NIL_1    0.000
3 C_1818 90.215 55.435 -30.055 C.3 1 NIL_1    0.000
4 C_1854 89.251 57.539 -30.937 C.2 1 NIL_1    0.000
5 NH 90.502 56.314 -32.370 N.am 1 NIL_1    0.000
6 N 87.961 54.586 -30.290 N.am 1 NIL_1    0.000
7 CP 89.033 54.807 -29.288 C.3 1 NIL_1    0.000
8 N 90.075 58.328 -31.668 N.am 1 NIL_1    0.000
9 O 88.429 57.924 -30.126 O.2 1 NIL_1    0.000
10 C_1856 90.821 57.608 -32.540 C.2 1 NIL_1    0.000
11 C_1841 86.778 53.939 -30.105 C.2 1 NIL_1    0.000
12 C_1838 89.553 53.551 -28.594 C.2 1 NIL_1    0.000
13 C_1868 90.262 59.771 -31.431 C.3 1 NIL_1    0.000
14 O 91.641 58.035 -33.328 O.2 1 NIL_1    0.000
15 O 86.118 53.581 -31.062 O.2 1 NIL_1    0.000
16 C_1840 86.287 53.749 -28.671 C.3 1 NIL_1    0.000
17 O 89.402 52.455 -29.105 O.2 1 NIL_1    0.000
18 N 90.267 53.692 -27.439 N.am 1 NIL_1    0.000
19 C_1869 89.890 60.656 -32.602 C.2 1 NIL_1    0.000
20 N 85.230 52.726 -28.495 N.am 1 NIL_1    0.000
21 C_1829 91.044 52.565 -26.887 C.3 1 NIL_1    0.000
22 C_1871 90.462 54.952 -26.685 C.3 1 NIL_1    0.000
23 C_2204 90.834 61.236 -33.348 C.2 1 NIL_1    0.000
24 C_2212 88.609 60.882 -32.898 C.2 1 NIL_1    0.000
25 C_1843 85.557 51.415 -28.287 C.2 1 NIL_1    0.000
26 C_1872 83.862 53.299 -28.459 C.3 1 NIL_1    0.000
27 C_1830 90.215 51.494 -26.190 C.2 1 NIL_1    0.000
28 C_1876 89.509 55.058 -25.479 C.3 1 NIL_1    0.000
29 C_2206 90.506 62.023 -34.375 C.2 1 NIL_1    0.000
30 C_2210 88.277 61.670 -33.921 C.2 1 NIL_1    0.000
31 AP 84.481 50.441 -27.801 C.3 1 NIL_1    0.000
32 O 86.694 51.025 -28.481 O.2 1 NIL_1    0.000
33 C_1879 83.282 53.545 -29.867 C.3 1 NIL_1    0.000
34 O 89.068 51.701 -25.837 O.2 1 NIL_1    0.000
35 N 90.823 50.293 -25.986 N.am 1 NIL_1    0.000
36 O 89.478 56.417 -24.982 O.3 1 NIL_1    0.000
37 C_2208 89.218 62.248 -34.673 C.2 1 NIL_1    0.000
38 C_1827 83.650 49.887 -28.975 C.3 1 NIL_1    0.000
39 N 84.998 49.262 -27.070 N.am 1 NIL_1    0.000
40 O 81.866 53.833 -29.792 O.3 1 NIL_1    0.000
41 C_1813 92.239 50.003 -26.251 C.3 1 NIL_1    0.000
42 BP 90.210 49.103 -25.348 C.3 1 NIL_1    0.000
43 C_1878 90.674 56.891 -24.324 C.3 1 NIL_1    0.000
44 O 88.796 63.049 -35.705 O.3 1 NIL_1    0.000
45 AQ 83.154 48.544 -28.431 C.3 1 NIL_1    0.000
46 C_1825 84.329 48.052 -27.575 C.3 1 NIL_1    0.000
47 C_1844 85.913 49.305 -26.063 C.2 1 NIL_1    0.000
48 C_1881 80.986 52.690 -29.692 C.3 1 NIL_1    0.000
49 BQ 92.361 48.481 -26.344 C.3 1 NIL_1    0.000
50 C_1833 88.866 48.694 -25.950 C.2 1 NIL_1    0.000
51 C_1815 91.232 47.943 -25.450 C.3 1 NIL_1    0.000
52 C_2271 89.745 63.494 -36.703 C.3 1 NIL_1    0.000
53 C_1846 82.699 47.567 -29.486 C.2 1 NIL_1    0.000
54 NH 81.914 48.678 -27.682 N.am 1 NIL_1    0.000
55 O 86.239 50.359 -25.550 O.2 1 NIL_1    0.000
56 C_1835 86.520 47.981 -25.607 C.3 1 NIL_1    0.000
57 C_1850 92.259 48.062 -27.792 C.2 1 NIL_1    0.000
58 NH 93.699 47.997 -26.052 N.am 1 NIL_1    0.000
59 O 88.649 48.872 -27.134 O.2 1 NIL_1    0.000
60 N 87.921 48.118 -25.139 N.am 1 NIL_1    0.000
61 N 81.387 47.296 -29.278 N.am 1 NIL_1    0.000
62 O 83.386 47.096 -30.370 O.2 1 NIL_1    0.000
63 C_1848 80.898 47.978 -28.212 C.2 1 NIL_1    0.000
64 N 93.462 47.567 -28.172 N.am 1 NIL_1    0.000
65 O 91.290 48.194 -28.516 O.2 1 NIL_1    0.000
66 C_1852 94.343 47.537 -27.138 C.2 1 NIL_1    0.000
67 C_1870 88.143 47.744 -23.716 C.3 1 NIL_1    0.000
68 C_1866 80.605 46.419 -30.174 C.3 1 NIL_1    0.000
69 O 79.757 47.990 -27.795 O.2 1 NIL_1    0.000
70 C_1864 93.799 47.270 -29.578 C.3 1 NIL_1    0.000
71 O 95.504 47.180 -27.164 O.2 1 NIL_1    0.000
72 C_1873 87.485 46.425 -23.241 C.3 1 NIL_1    0.000
73 C_1867 79.336 45.777 -29.644 C.2 1 NIL_1    0.000
74 C_1865 94.777 46.139 -29.834 C.2 1 NIL_1    0.000
75 O 86.312 46.692 -22.433 O.3 1 NIL_1    0.000
76 C_2172 79.399 44.773 -28.765 C.2 1 NIL_1    0.000
77 C_2180 78.137 46.194 -30.063 C.2 1 NIL_1    0.000
78 C_2196 96.006 46.392 -30.292 C.2 1 NIL_1    0.000
79 C_2188 94.422 44.871 -29.615 C.2 1 NIL_1    0.000
80 C_1875 86.560 47.060 -21.055 C.3 1 NIL_1    0.000
81 C_2174 78.284 44.195 -28.314 C.2 1 NIL_1    0.000
82 C_2178 77.021 45.620 -29.611 C.2 1 NIL_1    0.000
83 C_2194 96.863 45.398 -30.526 C.2 1 NIL_1    0.000
84 C_2190 95.278 43.873 -29.846 C.2 1 NIL_1    0.000
85 C_2176 77.086 44.617 -28.726 C.2 1 NIL_1    0.000
86 C_2192 96.513 44.128 -30.302 C.2 1 NIL_1    0.000
87 O 75.967 43.986 -28.257 O.3 1 NIL_1    0.000
88 O 97.442 43.155 -30.568 O.3 1 NIL_1    0.000
89 C_2273 74.907 44.828 -27.739 C.3 1 NIL_1    0.000
90 C_2269 97.346 41.892 -29.867 C.3 1 NIL_1    0.000
91 H_22691 98.214 41.282 -30.127 H 1 NIL_1    0.000
92 H_22692 96.438 41.366 -30.171 H 1 NIL_1    0.000
93 H_22693 97.337 42.074 -28.789 H 1 NIL_1    0.000
94 H_22731 74.526 45.487 -28.523 H 1 NIL_1    0.000
95 H_22732 75.288 45.424 -26.904 H 1 NIL_1    0.000
96 H_22733 74.094 44.189 -27.385 H 1 NIL_1    0.000
97 H_2190 94.944 42.855 -29.662 H 1 NIL_1    0.000
98 H_2194 97.859 45.628 -30.902 H 1 NIL_1    0.000
99 H_2178 76.062 45.969 -29.982 H 1 NIL_1    0.000
100 H_2174 78.358 43.371 -27.608 H 1 NIL_1    0.000
101 H_18751 87.116 46.256 -20.562 H 1 NIL_1    0.000
102 H_18752 85.599 47.195 -20.551 H 1 NIL_1    0.000
103 H_18753 87.132 47.990 -21.010 H 1 NIL_1    0.000
104 H_2188 93.424 44.645 -29.244 H 1 NIL_1    0.000
105 H_2196 96.319 47.417 -30.479 H 1 NIL_1    0.000
106 H_2180 78.067 47.007 -30.784 H 1 NIL_1    0.000
107 H_2172 80.366 44.416 -28.416 H 1 NIL_1    0.000
108 H_18731 87.198 45.806 -24.096 H 1 NIL_1    0.000
109 H_18732 88.195 45.853 -22.638 H 1 NIL_1    0.000
110 H_18641 94.192 48.193 -30.015 H 1 NIL_1    0.000
111 H_18642 92.876 47.034 -30.115 H 1 NIL_1    0.000
112 H_18661 81.264 45.610 -30.501 H 1 NIL_1    0.000
113 H_18662 80.364 47.005 -31.065 H 1 NIL_1    0.000
114 H_18701 87.818 48.577 -23.090 H 1 NIL_1    0.000
115 H_18702 89.212 47.607 -23.551 H 1 NIL_1    0.000
116 H_18351 85.860 47.594 -24.828 H 1 NIL_1    0.000
117 H_18352 86.518 47.284 -26.449 H 1 NIL_1    0.000
118 H_22711 90.195 62.626 -37.193 H 1 NIL_1    0.000
119 H_22712 90.518 64.107 -36.231 H 1 NIL_1    0.000
120 H_22713 89.215 64.098 -37.444 H 1 NIL_1    0.000
121 H_18151 91.621 47.721 -24.453 H 1 NIL_1    0.000
122 H_18152 90.793 47.030 -25.861 H 1 NIL_1    0.000
123 H_18811 79.952 53.039 -29.713 H 1 NIL_1    0.000
124 H_18812 81.172 52.158 -28.754 H 1 NIL_1    0.000
125 H_18813 81.162 52.021 -30.541 H 1 NIL_1    0.000
126 H_18251 83.984 47.421 -26.751 H 1 NIL_1    0.000
127 H_18252 85.037 47.497 -28.198 H 1 NIL_1    0.000
128 H_18781 90.942 56.206 -23.515 H 1 NIL_1    0.000
129 H_18782 90.474 57.882 -23.909 H 1 NIL_1    0.000
130 H_18783 91.494 56.957 -25.043 H 1 NIL_1    0.000
131 HP 90.053 49.358 -24.298 H 1 NIL_1    0.000
132 H_18131 92.835 50.380 -25.414 H 1 NIL_1    0.000
133 H_18132 92.591 50.464 -27.177 H 1 NIL_1    0.000
134 H_18271 82.832 50.549 -29.260 H 1 NIL_1    0.000
135 H_18272 84.292 49.728 -29.847 H 1 NIL_1    0.000
136 H_18791 83.776 54.412 -30.311 H 1 NIL_1    0.000
137 H_18792 83.442 52.673 -30.509 H 1 NIL_1    0.000
138 HP 83.831 50.962 -27.097 H 1 NIL_1    0.000
139 H_2210 87.227 61.842 -34.141 H 1 NIL_1    0.000
140 H_2206 91.308 62.475 -34.951 H 1 NIL_1    0.000
141 H_18761 88.496 54.794 -25.789 H 1 NIL_1    0.000
142 H_18762 89.825 54.382 -24.678 H 1 NIL_1    0.000
143 H_18721 83.884 54.247 -27.914 H 1 NIL_1    0.000
144 H_18722 83.190 52.645 -27.910 H 1 NIL_1    0.000
145 H_2212 87.825 60.424 -32.299 H 1 NIL_1    0.000
146 H_2204 91.885 61.072 -33.118 H 1 NIL_1    0.000
147 H_18711 90.304 55.816 -27.329 H 1 NIL_1    0.000
148 H_18712 91.496 55.007 -26.334 H 1 NIL_1    0.000
149 H_18291 91.794 52.913 -26.172 H 1 NIL_1    0.000
150 H_18292 91.566 52.101 -27.726 H 1 NIL_1    0.000
151 H_18401 87.127 53.473 -28.035 H 1 NIL_1    0.000
152 H_18402 85.935 54.729 -28.332 H 1 NIL_1    0.000
153 H_18681 91.313 59.931 -31.171 H 1 NIL_1    0.000
154 H_18682 89.673 60.070 -30.561 H 1 NIL_1    0.000
155 HP 88.640 55.503 -28.543 H 1 NIL_1    0.000
156 H_18181 90.793 56.137 -29.449 H 1 NIL_1    0.000
157 H_18182 90.891 54.647 -30.399 H 1 NIL_1    0.000
158 H_18161 87.534 55.788 -31.995 H 1 NIL_1    0.000
159 H_18162 88.635 54.407 -32.264 H 1 NIL_1    0.000
160 HH 94.125 48.094 -25.143 H 1 NIL_1    0.000
161 HH 81.819 49.292 -26.886 H 1 NIL_1    0.000
162 HH 90.938 55.554 -32.871 H 1 NIL_1    0.000
@<TRIPOS>BOND
1 1 2 1 
2 3 1 1 
3 4 1 1 
4 5 10 1 
5 5 1 1 
6 5 162 1 
7 6 2 1 
8 7 3 1 
9 7 6 1 
10 7 155 1 
11 8 4 1 
12 9 4 2 
13 10 8 1 
14 11 6 1 
15 12 7 1 
16 13 8 1 
17 13 153 1 
18 13 154 1 
19 14 10 2 
20 15 11 2 
21 16 20 1 
22 16 11 1 
23 16 151 1 
24 16 152 1 
25 17 12 2 
26 18 12 1 
27 19 13 1 
28 20 25 1 
29 21 18 1 
30 21 27 1 
31 21 149 1 
32 21 150 1 
33 22 18 1 
34 22 28 1 
35 22 147 1 
36 22 148 1 
37 23 19 2 
38 23 146 1 
39 24 30 2 
40 24 19 1 
41 24 145 1 
42 25 31 1 
43 26 20 1 
44 26 33 1 
45 26 143 1 
46 26 144 1 
47 27 35 1 
48 28 141 1 
49 28 142 1 
50 29 23 1 
51 29 140 1 
52 30 37 1 
53 30 139 1 
54 31 138 1 
55 32 25 2 
56 33 136 1 
57 33 137 1 
58 34 27 2 
59 36 28 1 
60 37 29 2 
61 38 45 1 
62 38 31 1 
63 38 134 1 
64 38 135 1 
65 39 46 1 
66 39 31 1 
67 39 47 1 
68 40 33 1 
69 41 35 1 
70 41 49 1 
71 41 132 1 
72 41 133 1 
73 42 51 1 
74 42 35 1 
75 42 131 1 
76 43 36 1 
77 43 128 1 
78 43 129 1 
79 43 130 1 
80 44 37 1 
81 45 46 1 
82 46 126 1 
83 46 127 1 
84 48 40 1 
85 48 123 1 
86 48 124 1 
87 48 125 1 
88 50 42 1 
89 50 59 2 
90 51 49 1 
91 52 44 1 
92 52 118 1 
93 52 119 1 
94 52 120 1 
95 53 45 1 
96 54 63 1 
97 54 45 1 
98 54 161 1 
99 55 47 2 
100 56 60 1 
101 56 47 1 
102 56 116 1 
103 56 117 1 
104 57 49 1 
105 58 66 1 
106 58 49 1 
107 58 160 1 
108 60 50 1 
109 61 53 1 
110 62 53 2 
111 63 61 1 
112 64 57 1 
113 65 57 2 
114 66 64 1 
115 67 60 1 
116 67 72 1 
117 67 114 1 
118 67 115 1 
119 68 61 1 
120 68 112 1 
121 68 113 1 
122 69 63 2 
123 70 64 1 
124 70 74 1 
125 71 66 2 
126 73 68 1 
127 73 76 2 
128 73 77 1 
129 74 78 1 
130 75 72 1 
131 77 82 2 
132 79 84 1 
133 79 74 2 
134 79 104 1 
135 80 75 1 
136 81 76 1 
137 82 85 1 
138 83 78 2 
139 84 86 2 
140 84 97 1 
141 85 81 2 
142 86 88 1 
143 86 83 1 
144 87 85 1 
145 89 87 1 
146 89 96 1 
147 90 88 1 
148 91 90 1 
149 92 90 1 
150 93 90 1 
151 94 89 1 
152 95 89 1 
153 98 83 1 
154 99 82 1 
155 100 81 1 
156 101 80 1 
157 102 80 1 
158 103 80 1 
159 105 78 1 
160 106 77 1 
161 107 76 1 
162 108 72 1 
163 109 72 1 
164 110 70 1 
165 111 70 1 
166 121 51 1 
167 122 51 1 
168 156 3 1 
169 157 3 1 
170 158 2 1 
171 159 2 1 
@<TRIPOS>SUBSTRUCTURE
1 NIL_1 1 RESIDUE 1 A NIL 1
