@<TRIPOS>MOLECULE
NIL
162 171 1 0 0
POLYMER
CHARGES


@<TRIPOS>ATOM
1 CQ 81.9567 49.7981 -34.985 C.3 1 NIL_1    0.000
2 C_1816 81.893 48.429 -35.677 C.3 1 NIL_1    0.000
3 C_1818 81.866 49.486 -33.481 C.3 1 NIL_1    0.000
4 C_1854 80.814 50.667 -35.461 C.2 1 NIL_1    0.000
5 NH 83.075 50.619 -35.418 N.am 1 NIL_1    0.000
6 N 81.109 47.571 -34.787 N.am 1 NIL_1    0.000
7 CP 81.027 48.194 -33.449 C.3 1 NIL_1    0.000
8 N 81.339 51.703 -36.153 N.am 1 NIL_1    0.000
9 O 79.629 50.469 -35.270 O.2 1 NIL_1    0.000
10 C_1856 82.692 51.685 -36.144 C.2 1 NIL_1    0.000
11 C_1841 80.359 46.504 -35.160 C.2 1 NIL_1    0.000
12 C_1838 81.342 47.261 -32.280 C.2 1 NIL_1    0.000
13 C_1868 80.531 52.663 -36.923 C.3 1 NIL_1    0.000
14 O 83.438 52.471 -36.694 O.2 1 NIL_1    0.000
15 O 79.576 46.029 -34.360 O.2 1 NIL_1    0.000
16 C_1840 80.499 45.991 -36.598 C.3 1 NIL_1    0.000
17 O 80.659 47.271 -31.274 O.2 1 NIL_1    0.000
18 N 82.306 46.318 -32.452 N.am 1 NIL_1    0.000
19 C_1869 80.291 52.139 -38.327 C.2 1 NIL_1    0.000
20 N 79.876 44.668 -36.863 N.am 1 NIL_1    0.000
21 C_1829 82.043 44.927 -32.012 C.3 1 NIL_1    0.000
22 C_1871 83.717 46.697 -32.205 C.3 1 NIL_1    0.000
23 C_2204 79.444 51.128 -38.548 C.2 1 NIL_1    0.000
24 C_2212 80.936 52.670 -39.369 C.2 1 NIL_1    0.000
25 C_1843 78.574 44.423 -36.536 C.2 1 NIL_1    0.000
26 C_1872 80.597 43.865 -37.877 C.3 1 NIL_1    0.000
27 C_1830 82.760 43.868 -32.840 C.2 1 NIL_1    0.000
28 C_1876 84.546 47.021 -33.463 C.3 1 NIL_1    0.000
29 C_2206 79.259 50.650 -39.777 C.2 1 NIL_1    0.000
30 C_2210 80.747 52.200 -40.603 C.2 1 NIL_1    0.000
31 AP 78.111 43.025 -36.127 C.3 1 NIL_1    0.000
32 O 77.777 45.341 -36.470 O.2 1 NIL_1    0.000
33 C_1879 81.795 43.021 -37.386 C.3 1 NIL_1    0.000
34 O 83.249 44.131 -33.922 O.2 1 NIL_1    0.000
35 N 82.843 42.604 -32.347 N.am 1 NIL_1    0.000
36 O 85.873 47.381 -33.028 O.3 1 NIL_1    0.000
37 C_2208 79.904 51.177 -40.819 C.2 1 NIL_1    0.000
38 C_1827 77.318 42.310 -37.227 C.3 1 NIL_1    0.000
39 N 79.057 42.044 -35.539 N.am 1 NIL_1    0.000
40 O 82.950 43.861 -37.177 O.3 1 NIL_1    0.000
41 C_1813 83.816 41.629 -32.861 C.3 1 NIL_1    0.000
42 BP 82.181 42.034 -31.151 C.3 1 NIL_1    0.000
43 C_1878 86.790 47.711 -34.088 C.3 1 NIL_1    0.000
44 O 79.663 50.622 -42.051 O.3 1 NIL_1    0.000
45 AQ 77.319 40.863 -36.727 C.3 1 NIL_1    0.000
46 C_1825 78.675 40.700 -36.018 C.3 1 NIL_1    0.000
47 C_1844 79.871 42.341 -34.486 C.2 1 NIL_1    0.000
48 C_1881 84.177 43.151 -36.894 C.3 1 NIL_1    0.000
49 BQ 83.975 40.557 -31.773 C.3 1 NIL_1    0.000
50 C_1833 80.661 42.137 -31.018 C.2 1 NIL_1    0.000
51 C_1815 82.630 40.563 -31.042 C.3 1 NIL_1    0.000
52 C_2271 80.191 51.259 -43.238 C.3 1 NIL_1    0.000
53 C_1846 77.037 39.856 -37.814 C.2 1 NIL_1    0.000
54 NH 76.203 40.574 -35.838 N.am 1 NIL_1    0.000
55 O 80.317 43.455 -34.344 O.2 1 NIL_1    0.000
56 C_1835 80.151 41.325 -33.395 C.3 1 NIL_1    0.000
57 C_1850 84.382 39.208 -32.308 C.2 1 NIL_1    0.000
58 NH 85.082 40.799 -30.859 N.am 1 NIL_1    0.000
59 O 80.212 42.457 -29.933 O.2 1 NIL_1    0.000
60 N 79.815 41.913 -32.071 N.am 1 NIL_1    0.000
61 N 75.917 39.172 -37.474 N.am 1 NIL_1    0.000
62 O 77.688 39.706 -38.831 O.2 1 NIL_1    0.000
63 C_1848 75.402 39.599 -36.295 C.2 1 NIL_1    0.000
64 N 85.524 38.837 -31.680 N.am 1 NIL_1    0.000
65 O 83.787 38.563 -33.149 O.2 1 NIL_1    0.000
66 C_1852 85.928 39.761 -30.774 C.2 1 NIL_1    0.000
67 C_1870 78.359 42.180 -31.955 C.3 1 NIL_1    0.000
68 C_1866 75.283 38.129 -38.301 C.3 1 NIL_1    0.000
69 O 74.401 39.192 -35.739 O.2 1 NIL_1    0.000
70 C_1864 86.173 37.527 -31.866 C.3 1 NIL_1    0.000
71 O 86.870 39.677 -30.011 O.2 1 NIL_1    0.000
72 C_1873 77.553 40.922 -31.580 C.3 1 NIL_1    0.000
73 C_1867 76.236 37.108 -38.892 C.2 1 NIL_1    0.000
74 C_1865 87.534 37.428 -32.540 C.2 1 NIL_1    0.000
75 O 76.134 41.192 -31.651 O.3 1 NIL_1    0.000
76 C_2172 77.037 36.380 -38.108 C.2 1 NIL_1    0.000
77 C_2180 76.294 36.927 -40.214 C.2 1 NIL_1    0.000
78 C_2196 88.366 38.469 -32.675 C.2 1 NIL_1    0.000
79 C_2188 87.935 36.238 -32.997 C.2 1 NIL_1    0.000
80 C_1875 75.582 42.039 -30.620 C.3 1 NIL_1    0.000
81 C_2174 77.886 35.498 -38.637 C.2 1 NIL_1    0.000
82 C_2178 77.142 36.045 -40.746 C.2 1 NIL_1    0.000
83 C_2194 89.569 38.314 -33.232 C.2 1 NIL_1    0.000
84 C_2190 89.133 36.081 -33.559 C.2 1 NIL_1    0.000
85 C_2176 77.954 35.328 -39.959 C.2 1 NIL_1    0.000
86 C_2192 89.971 37.121 -33.675 C.2 1 NIL_1    0.000
87 O 78.849 34.412 -40.446 O.3 1 NIL_1    0.000
88 O 91.229 37.033 -34.221 O.3 1 NIL_1    0.000
89 C_2273 79.538 34.734 -41.677 C.3 1 NIL_1    0.000
90 C_2269 91.761 35.736 -34.592 C.3 1 NIL_1    0.000
91 H_22691 91.151 35.307 -35.392 H 1 NIL_1    0.000
92 H_22692 91.760 35.075 -33.721 H 1 NIL_1    0.000
93 H_22693 92.786 35.862 -34.948 H 1 NIL_1    0.000
94 H_22731 80.332 34.000 -41.833 H 1 NIL_1    0.000
95 H_22732 79.975 35.733 -41.601 H 1 NIL_1    0.000
96 H_22733 78.840 34.691 -42.518 H 1 NIL_1    0.000
97 H_2190 89.406 35.090 -33.908 H 1 NIL_1    0.000
98 H_2194 90.232 39.173 -33.315 H 1 NIL_1    0.000
99 H_2178 77.155 35.923 -41.826 H 1 NIL_1    0.000
100 H_2174 78.534 34.919 -37.983 H 1 NIL_1    0.000
101 H_18751 75.876 41.655 -29.639 H 1 NIL_1    0.000
102 H_18752 74.493 42.025 -30.706 H 1 NIL_1    0.000
103 H_18753 75.945 43.062 -30.746 H 1 NIL_1    0.000
104 H_2188 87.280 35.375 -32.903 H 1 NIL_1    0.000
105 H_2196 88.085 39.457 -32.325 H 1 NIL_1    0.000
106 H_2180 75.647 37.503 -40.871 H 1 NIL_1    0.000
107 H_2172 77.006 36.508 -37.028 H 1 NIL_1    0.000
108 H_18731 77.771 40.123 -32.293 H 1 NIL_1    0.000
109 H_18732 77.815 40.584 -30.574 H 1 NIL_1    0.000
110 H_18641 85.479 36.893 -32.425 H 1 NIL_1    0.000
111 H_18642 86.260 37.078 -30.872 H 1 NIL_1    0.000
112 H_18661 74.741 38.636 -39.104 H 1 NIL_1    0.000
113 H_18662 74.543 37.596 -37.697 H 1 NIL_1    0.000
114 H_18701 77.970 42.571 -32.899 H 1 NIL_1    0.000
115 H_18702 78.193 42.956 -31.203 H 1 NIL_1    0.000
116 H_18351 79.543 40.434 -33.541 H 1 NIL_1    0.000
117 H_18352 81.197 41.031 -33.468 H 1 NIL_1    0.000
118 H_22711 79.807 52.281 -43.303 H 1 NIL_1    0.000
119 H_22712 79.864 50.691 -44.112 H 1 NIL_1    0.000
120 H_22713 81.283 51.264 -43.198 H 1 NIL_1    0.000
121 H_18151 82.712 40.239 -30.000 H 1 NIL_1    0.000
122 H_18152 81.923 39.907 -31.554 H 1 NIL_1    0.000
123 H_18811 84.053 42.551 -35.989 H 1 NIL_1    0.000
124 H_18812 84.977 43.880 -36.745 H 1 NIL_1    0.000
125 H_18813 84.432 42.500 -37.736 H 1 NIL_1    0.000
126 H_18251 78.586 39.974 -35.209 H 1 NIL_1    0.000
127 H_18252 79.434 40.360 -36.727 H 1 NIL_1    0.000
128 H_18781 87.764 47.947 -33.652 H 1 NIL_1    0.000
129 H_18782 86.408 48.578 -34.634 H 1 NIL_1    0.000
130 H_18783 86.889 46.857 -34.762 H 1 NIL_1    0.000
131 HP 82.598 42.565 -30.290 H 1 NIL_1    0.000
132 H_18131 84.773 42.112 -33.078 H 1 NIL_1    0.000
133 H_18132 83.417 41.190 -33.779 H 1 NIL_1    0.000
134 H_18271 76.309 42.716 -37.336 H 1 NIL_1    0.000
135 H_18272 77.834 42.387 -38.187 H 1 NIL_1    0.000
136 H_18791 81.559 42.489 -36.466 H 1 NIL_1    0.000
137 H_18792 82.044 42.290 -38.161 H 1 NIL_1    0.000
138 HP 77.395 43.219 -35.323 H 1 NIL_1    0.000
139 H_2210 81.298 52.663 -41.416 H 1 NIL_1    0.000
140 H_2206 78.573 49.818 -39.930 H 1 NIL_1    0.000
141 H_18761 84.613 46.157 -34.125 H 1 NIL_1    0.000
142 H_18762 84.117 47.859 -34.010 H 1 NIL_1    0.000
143 H_18721 80.946 44.535 -38.666 H 1 NIL_1    0.000
144 H_18722 79.883 43.184 -38.344 H 1 NIL_1    0.000
145 H_2212 81.629 53.495 -39.215 H 1 NIL_1    0.000
146 H_2204 78.898 50.676 -37.724 H 1 NIL_1    0.000
147 H_18711 84.229 45.890 -31.672 H 1 NIL_1    0.000
148 H_18712 83.728 47.572 -31.550 H 1 NIL_1    0.000
149 H_18291 80.972 44.713 -32.083 H 1 NIL_1    0.000
150 H_18292 82.353 44.816 -30.970 H 1 NIL_1    0.000
151 H_18401 80.027 46.738 -37.243 H 1 NIL_1    0.000
152 H_18402 81.566 45.954 -36.830 H 1 NIL_1    0.000
153 H_18681 81.057 53.621 -36.962 H 1 NIL_1    0.000
154 H_18682 79.577 52.822 -36.415 H 1 NIL_1    0.000
155 HP 79.981 48.487 -33.316 H 1 NIL_1    0.000
156 H_18181 81.391 50.292 -32.914 H 1 NIL_1    0.000
157 H_18182 82.860 49.322 -33.063 H 1 NIL_1    0.000
158 H_18161 81.424 48.515 -36.661 H 1 NIL_1    0.000
159 H_18162 82.893 48.006 -35.787 H 1 NIL_1    0.000
160 HH 85.125 41.611 -30.261 H 1 NIL_1    0.000
161 HH 76.063 41.056 -34.963 H 1 NIL_1    0.000
162 HH 84.035 50.349 -35.274 H 1 NIL_1    0.000
@<TRIPOS>BOND
1 1 2 1 
2 3 1 1 
3 4 1 1 
4 5 10 1 
5 5 1 1 
6 5 162 1 
7 6 2 1 
8 7 3 1 
9 7 6 1 
10 7 155 1 
11 8 4 1 
12 9 4 2 
13 10 8 1 
14 11 6 1 
15 12 7 1 
16 13 8 1 
17 13 153 1 
18 13 154 1 
19 14 10 2 
20 15 11 2 
21 16 20 1 
22 16 11 1 
23 16 151 1 
24 16 152 1 
25 17 12 2 
26 18 12 1 
27 19 13 1 
28 20 25 1 
29 21 18 1 
30 21 27 1 
31 21 149 1 
32 21 150 1 
33 22 18 1 
34 22 28 1 
35 22 147 1 
36 22 148 1 
37 23 19 2 
38 23 146 1 
39 24 30 2 
40 24 19 1 
41 24 145 1 
42 25 31 1 
43 26 20 1 
44 26 33 1 
45 26 143 1 
46 26 144 1 
47 27 35 1 
48 28 141 1 
49 28 142 1 
50 29 23 1 
51 29 140 1 
52 30 37 1 
53 30 139 1 
54 31 138 1 
55 32 25 2 
56 33 136 1 
57 33 137 1 
58 34 27 2 
59 36 28 1 
60 37 29 2 
61 38 45 1 
62 38 31 1 
63 38 134 1 
64 38 135 1 
65 39 46 1 
66 39 31 1 
67 39 47 1 
68 40 33 1 
69 41 35 1 
70 41 49 1 
71 41 132 1 
72 41 133 1 
73 42 51 1 
74 42 35 1 
75 42 131 1 
76 43 36 1 
77 43 128 1 
78 43 129 1 
79 43 130 1 
80 44 37 1 
81 45 46 1 
82 46 126 1 
83 46 127 1 
84 48 40 1 
85 48 123 1 
86 48 124 1 
87 48 125 1 
88 50 42 1 
89 50 59 2 
90 51 49 1 
91 52 44 1 
92 52 118 1 
93 52 119 1 
94 52 120 1 
95 53 45 1 
96 54 63 1 
97 54 45 1 
98 54 161 1 
99 55 47 2 
100 56 60 1 
101 56 47 1 
102 56 116 1 
103 56 117 1 
104 57 49 1 
105 58 66 1 
106 58 49 1 
107 58 160 1 
108 60 50 1 
109 61 53 1 
110 62 53 2 
111 63 61 1 
112 64 57 1 
113 65 57 2 
114 66 64 1 
115 67 60 1 
116 67 72 1 
117 67 114 1 
118 67 115 1 
119 68 61 1 
120 68 112 1 
121 68 113 1 
122 69 63 2 
123 70 64 1 
124 70 74 1 
125 71 66 2 
126 73 68 1 
127 73 76 2 
128 73 77 1 
129 74 78 1 
130 75 72 1 
131 77 82 2 
132 79 84 1 
133 79 74 2 
134 79 104 1 
135 80 75 1 
136 81 76 1 
137 82 85 1 
138 83 78 2 
139 84 86 2 
140 84 97 1 
141 85 81 2 
142 86 88 1 
143 86 83 1 
144 87 85 1 
145 89 87 1 
146 89 96 1 
147 90 88 1 
148 91 90 1 
149 92 90 1 
150 93 90 1 
151 94 89 1 
152 95 89 1 
153 98 83 1 
154 99 82 1 
155 100 81 1 
156 101 80 1 
157 102 80 1 
158 103 80 1 
159 105 78 1 
160 106 77 1 
161 107 76 1 
162 108 72 1 
163 109 72 1 
164 110 70 1 
165 111 70 1 
166 121 51 1 
167 122 51 1 
168 156 3 1 
169 157 3 1 
170 158 2 1 
171 159 2 1 
@<TRIPOS>SUBSTRUCTURE
1 NIL_1 1 RESIDUE 1 A NIL 1
