@<TRIPOS>MOLECULE
NIL
162 171 1 0 0
POLYMER
CHARGES


@<TRIPOS>ATOM
1 CQ 90.7105 56.2484 -29.6513 C.3 1 NIL_1    0.000
2 C_1816 90.093 54.860 -29.387 C.3 1 NIL_1    0.000
3 C_1818 90.039 57.214 -28.666 C.3 1 NIL_1    0.000
4 C_1854 90.571 56.772 -31.066 C.2 1 NIL_1    0.000
5 NH 92.160 56.258 -29.544 N.am 1 NIL_1    0.000
6 N 89.117 54.975 -28.286 N.am 1 NIL_1    0.000
7 CP 88.927 56.410 -27.971 C.3 1 NIL_1    0.000
8 N 91.803 57.128 -31.502 N.am 1 NIL_1    0.000
9 O 89.535 56.910 -31.686 O.2 1 NIL_1    0.000
10 C_1856 92.769 56.796 -30.613 C.2 1 NIL_1    0.000
11 C_1841 88.428 53.906 -27.791 C.2 1 NIL_1    0.000
12 C_1838 88.859 56.881 -26.516 C.2 1 NIL_1    0.000
13 C_1868 92.057 57.902 -32.730 C.3 1 NIL_1    0.000
14 O 93.967 56.958 -30.732 O.2 1 NIL_1    0.000
15 O 88.820 52.782 -28.039 O.2 1 NIL_1    0.000
16 C_1840 87.155 54.206 -26.988 C.3 1 NIL_1    0.000
17 O 87.967 57.655 -26.229 O.2 1 NIL_1    0.000
18 N 89.755 56.469 -25.561 N.am 1 NIL_1    0.000
19 C_1869 92.120 59.386 -32.412 C.2 1 NIL_1    0.000
20 N 86.405 53.160 -26.229 N.am 1 NIL_1    0.000
21 C_1829 90.855 55.478 -25.753 C.3 1 NIL_1    0.000
22 C_1871 89.637 57.038 -24.185 C.3 1 NIL_1    0.000
23 C_2204 91.029 60.153 -32.500 C.2 1 NIL_1    0.000
24 C_2212 93.267 59.953 -32.027 C.2 1 NIL_1    0.000
25 C_1843 85.604 53.566 -25.188 C.2 1 NIL_1    0.000
26 C_1872 86.259 51.834 -26.887 C.3 1 NIL_1    0.000
27 C_1830 90.656 54.168 -24.994 C.2 1 NIL_1    0.000
28 C_1876 90.895 57.095 -23.290 C.3 1 NIL_1    0.000
29 C_2206 91.084 61.453 -32.199 C.2 1 NIL_1    0.000
30 C_2210 93.326 61.251 -31.724 C.2 1 NIL_1    0.000
31 AP 85.003 52.569 -24.190 C.3 1 NIL_1    0.000
32 O 85.400 54.749 -24.989 O.2 1 NIL_1    0.000
33 C_1879 85.325 51.849 -28.114 C.3 1 NIL_1    0.000
34 O 89.818 54.076 -24.119 O.2 1 NIL_1    0.000
35 N 91.456 53.108 -25.298 N.am 1 NIL_1    0.000
36 O 91.859 57.992 -23.880 O.3 1 NIL_1    0.000
37 C_2208 92.228 62.018 -31.803 C.2 1 NIL_1    0.000
38 C_1827 83.696 51.933 -24.700 C.3 1 NIL_1    0.000
39 N 85.894 51.484 -23.733 N.am 1 NIL_1    0.000
40 O 85.979 52.462 -29.246 O.3 1 NIL_1    0.000
41 C_1813 92.535 53.087 -26.300 C.3 1 NIL_1    0.000
42 BP 91.392 51.786 -24.630 C.3 1 NIL_1    0.000
43 C_1878 93.025 58.240 -23.068 C.3 1 NIL_1    0.000
44 O 92.206 63.360 -31.506 O.3 1 NIL_1    0.000
45 AQ 83.702 50.527 -24.079 C.3 1 NIL_1    0.000
46 C_1825 85.178 50.204 -23.781 C.3 1 NIL_1    0.000
47 C_1844 87.167 51.673 -23.302 C.2 1 NIL_1    0.000
48 C_1881 85.140 52.614 -30.410 C.3 1 NIL_1    0.000
49 BQ 93.318 51.779 -26.072 C.3 1 NIL_1    0.000
50 C_1833 89.978 51.216 -24.525 C.2 1 NIL_1    0.000
51 C_1815 92.295 50.835 -25.433 C.3 1 NIL_1    0.000
52 C_2271 93.355 63.977 -30.873 C.3 1 NIL_1    0.000
53 C_1846 83.043 49.479 -24.944 C.2 1 NIL_1    0.000
54 NH 82.845 50.441 -22.909 N.am 1 NIL_1    0.000
55 O 87.573 52.789 -23.047 O.2 1 NIL_1    0.000
56 C_1835 88.065 50.451 -23.160 C.3 1 NIL_1    0.000
57 C_1850 93.956 51.206 -27.314 C.2 1 NIL_1    0.000
58 NH 94.507 51.941 -25.246 N.am 1 NIL_1    0.000
59 O 89.285 51.145 -25.522 O.2 1 NIL_1    0.000
60 N 89.498 50.796 -23.316 N.am 1 NIL_1    0.000
61 N 81.985 48.975 -24.264 N.am 1 NIL_1    0.000
62 O 83.404 49.136 -26.053 O.2 1 NIL_1    0.000
63 C_1848 81.850 49.547 -23.044 C.2 1 NIL_1    0.000
64 N 95.281 51.057 -27.075 N.am 1 NIL_1    0.000
65 O 93.383 50.913 -28.345 O.2 1 NIL_1    0.000
66 C_1852 95.625 51.487 -25.838 C.2 1 NIL_1    0.000
67 C_1870 90.212 50.890 -22.023 C.3 1 NIL_1    0.000
68 C_1866 81.122 47.887 -24.762 C.3 1 NIL_1    0.000
69 O 80.999 49.311 -22.211 O.2 1 NIL_1    0.000
70 C_1864 96.229 50.435 -28.015 C.3 1 NIL_1    0.000
71 O 96.734 51.466 -25.340 O.2 1 NIL_1    0.000
72 C_1873 91.215 49.744 -21.757 C.3 1 NIL_1    0.000
73 C_1867 80.403 48.188 -26.064 C.2 1 NIL_1    0.000
74 C_1865 96.676 49.025 -27.661 C.2 1 NIL_1    0.000
75 O 90.522 48.479 -21.626 O.3 1 NIL_1    0.000
76 C_2172 80.729 47.545 -27.190 C.2 1 NIL_1    0.000
77 C_2180 79.420 49.093 -26.103 C.2 1 NIL_1    0.000
78 C_2196 95.883 48.172 -26.999 C.2 1 NIL_1    0.000
79 C_2188 97.890 48.606 -28.030 C.2 1 NIL_1    0.000
80 C_1875 90.492 47.635 -22.798 C.3 1 NIL_1    0.000
81 C_2174 80.085 47.797 -28.330 C.2 1 NIL_1    0.000
82 C_2178 78.772 49.346 -27.243 C.2 1 NIL_1    0.000
83 C_2194 96.296 46.937 -26.707 C.2 1 NIL_1    0.000
84 C_2190 98.304 47.371 -27.744 C.2 1 NIL_1    0.000
85 C_2176 79.097 48.694 -28.365 C.2 1 NIL_1    0.000
86 C_2192 97.517 46.525 -27.076 C.2 1 NIL_1    0.000
87 O 78.469 48.930 -29.556 O.3 1 NIL_1    0.000
88 O 97.997 45.266 -26.823 O.3 1 NIL_1    0.000
89 C_2273 77.023 48.857 -29.556 C.3 1 NIL_1    0.000
90 C_2269 97.592 44.607 -25.598 C.3 1 NIL_1    0.000
91 H_22691 96.527 44.361 -25.636 H 1 NIL_1    0.000
92 H_22692 97.801 45.262 -24.746 H 1 NIL_1    0.000
93 H_22693 98.167 43.683 -25.495 H 1 NIL_1    0.000
94 H_22731 76.674 48.998 -30.582 H 1 NIL_1    0.000
95 H_22732 76.602 49.644 -28.925 H 1 NIL_1    0.000
96 H_22733 76.707 47.875 -29.191 H 1 NIL_1    0.000
97 H_2190 99.294 47.052 -28.061 H 1 NIL_1    0.000
98 H_2194 95.618 46.275 -26.174 H 1 NIL_1    0.000
99 H_2178 77.981 50.090 -27.245 H 1 NIL_1    0.000
100 H_2174 80.366 47.262 -29.236 H 1 NIL_1    0.000
101 H_18751 90.031 48.170 -23.631 H 1 NIL_1    0.000
102 H_18752 89.905 46.741 -22.570 H 1 NIL_1    0.000
103 H_18753 91.513 47.344 -23.062 H 1 NIL_1    0.000
104 H_2188 98.554 49.273 -28.576 H 1 NIL_1    0.000
105 H_2196 94.885 48.473 -26.692 H 1 NIL_1    0.000
106 H_2180 79.139 49.628 -25.199 H 1 NIL_1    0.000
107 H_2172 81.524 46.807 -27.188 H 1 NIL_1    0.000
108 H_18731 91.972 49.682 -22.542 H 1 NIL_1    0.000
109 H_18732 91.716 49.941 -20.805 H 1 NIL_1    0.000
110 H_18641 97.107 51.085 -28.068 H 1 NIL_1    0.000
111 H_18642 95.782 50.420 -29.012 H 1 NIL_1    0.000
112 H_18661 80.371 47.657 -24.001 H 1 NIL_1    0.000
113 H_18662 81.741 46.994 -24.882 H 1 NIL_1    0.000
114 H_18701 89.488 50.898 -21.205 H 1 NIL_1    0.000
115 H_18702 90.736 51.847 -21.966 H 1 NIL_1    0.000
116 H_18351 87.865 49.997 -22.186 H 1 NIL_1    0.000
117 H_18352 87.796 49.728 -23.934 H 1 NIL_1    0.000
118 H_22711 93.123 65.026 -30.674 H 1 NIL_1    0.000
119 H_22712 94.220 63.921 -31.540 H 1 NIL_1    0.000
120 H_22713 93.571 63.469 -29.929 H 1 NIL_1    0.000
121 H_18151 92.756 50.071 -24.801 H 1 NIL_1    0.000
122 H_18152 91.720 50.335 -26.217 H 1 NIL_1    0.000
123 H_18811 85.738 53.031 -31.224 H 1 NIL_1    0.000
124 H_18812 84.315 53.292 -30.172 H 1 NIL_1    0.000
125 H_18813 84.744 51.638 -30.706 H 1 NIL_1    0.000
126 H_18251 85.274 49.680 -22.826 H 1 NIL_1    0.000
127 H_18252 85.607 49.588 -24.577 H 1 NIL_1    0.000
128 H_18781 93.539 57.295 -22.874 H 1 NIL_1    0.000
129 H_18782 92.716 58.696 -22.124 H 1 NIL_1    0.000
130 H_18783 93.691 58.920 -23.603 H 1 NIL_1    0.000
131 HP 91.835 51.914 -23.644 H 1 NIL_1    0.000
132 H_18131 93.186 53.960 -26.199 H 1 NIL_1    0.000
133 H_18132 92.078 53.081 -27.292 H 1 NIL_1    0.000
134 H_18271 82.824 52.518 -24.397 H 1 NIL_1    0.000
135 H_18272 83.689 51.865 -25.787 H 1 NIL_1    0.000
136 H_18791 85.064 50.822 -28.383 H 1 NIL_1    0.000
137 H_18792 84.410 52.402 -27.883 H 1 NIL_1    0.000
138 HP 84.757 53.151 -23.297 H 1 NIL_1    0.000
139 H_2210 94.282 61.662 -31.413 H 1 NIL_1    0.000
140 H_2206 90.182 62.058 -32.274 H 1 NIL_1    0.000
141 H_18761 90.614 57.489 -22.309 H 1 NIL_1    0.000
142 H_18762 91.342 56.107 -23.156 H 1 NIL_1    0.000
143 H_18721 85.830 51.120 -26.191 H 1 NIL_1    0.000
144 H_18722 87.224 51.411 -27.154 H 1 NIL_1    0.000
145 H_2212 94.169 59.353 -31.953 H 1 NIL_1    0.000
146 H_2204 90.083 59.720 -32.814 H 1 NIL_1    0.000
147 H_18711 88.866 56.470 -23.656 H 1 NIL_1    0.000
148 H_18712 89.275 58.067 -24.260 H 1 NIL_1    0.000
149 H_18291 91.802 55.904 -25.416 H 1 NIL_1    0.000
150 H_18292 91.000 55.239 -26.803 H 1 NIL_1    0.000
151 H_18401 87.454 54.942 -26.246 H 1 NIL_1    0.000
152 H_18402 86.459 54.689 -27.682 H 1 NIL_1    0.000
153 H_18681 91.261 57.706 -33.452 H 1 NIL_1    0.000
154 H_18682 93.002 57.574 -33.174 H 1 NIL_1    0.000
155 HP 87.975 56.694 -28.428 H 1 NIL_1    0.000
156 H_18181 89.625 58.095 -29.165 H 1 NIL_1    0.000
157 H_18182 90.777 57.569 -27.939 H 1 NIL_1    0.000
158 H_18161 89.580 54.492 -30.280 H 1 NIL_1    0.000
159 H_18162 90.872 54.145 -29.105 H 1 NIL_1    0.000
160 HH 94.469 52.283 -24.297 H 1 NIL_1    0.000
161 HH 82.972 51.028 -22.099 H 1 NIL_1    0.000
162 HH 92.643 55.937 -28.719 H 1 NIL_1    0.000
@<TRIPOS>BOND
1 1 2 1 
2 3 1 1 
3 4 1 1 
4 5 10 1 
5 5 1 1 
6 5 162 1 
7 6 2 1 
8 7 3 1 
9 7 6 1 
10 7 155 1 
11 8 4 1 
12 9 4 2 
13 10 8 1 
14 11 6 1 
15 12 7 1 
16 13 8 1 
17 13 153 1 
18 13 154 1 
19 14 10 2 
20 15 11 2 
21 16 20 1 
22 16 11 1 
23 16 151 1 
24 16 152 1 
25 17 12 2 
26 18 12 1 
27 19 13 1 
28 20 25 1 
29 21 18 1 
30 21 27 1 
31 21 149 1 
32 21 150 1 
33 22 18 1 
34 22 28 1 
35 22 147 1 
36 22 148 1 
37 23 19 2 
38 23 146 1 
39 24 30 2 
40 24 19 1 
41 24 145 1 
42 25 31 1 
43 26 20 1 
44 26 33 1 
45 26 143 1 
46 26 144 1 
47 27 35 1 
48 28 141 1 
49 28 142 1 
50 29 23 1 
51 29 140 1 
52 30 37 1 
53 30 139 1 
54 31 138 1 
55 32 25 2 
56 33 136 1 
57 33 137 1 
58 34 27 2 
59 36 28 1 
60 37 29 2 
61 38 45 1 
62 38 31 1 
63 38 134 1 
64 38 135 1 
65 39 46 1 
66 39 31 1 
67 39 47 1 
68 40 33 1 
69 41 35 1 
70 41 49 1 
71 41 132 1 
72 41 133 1 
73 42 51 1 
74 42 35 1 
75 42 131 1 
76 43 36 1 
77 43 128 1 
78 43 129 1 
79 43 130 1 
80 44 37 1 
81 45 46 1 
82 46 126 1 
83 46 127 1 
84 48 40 1 
85 48 123 1 
86 48 124 1 
87 48 125 1 
88 50 42 1 
89 50 59 2 
90 51 49 1 
91 52 44 1 
92 52 118 1 
93 52 119 1 
94 52 120 1 
95 53 45 1 
96 54 63 1 
97 54 45 1 
98 54 161 1 
99 55 47 2 
100 56 60 1 
101 56 47 1 
102 56 116 1 
103 56 117 1 
104 57 49 1 
105 58 66 1 
106 58 49 1 
107 58 160 1 
108 60 50 1 
109 61 53 1 
110 62 53 2 
111 63 61 1 
112 64 57 1 
113 65 57 2 
114 66 64 1 
115 67 60 1 
116 67 72 1 
117 67 114 1 
118 67 115 1 
119 68 61 1 
120 68 112 1 
121 68 113 1 
122 69 63 2 
123 70 64 1 
124 70 74 1 
125 71 66 2 
126 73 68 1 
127 73 76 2 
128 73 77 1 
129 74 78 1 
130 75 72 1 
131 77 82 2 
132 79 84 1 
133 79 74 2 
134 79 104 1 
135 80 75 1 
136 81 76 1 
137 82 85 1 
138 83 78 2 
139 84 86 2 
140 84 97 1 
141 85 81 2 
142 86 88 1 
143 86 83 1 
144 87 85 1 
145 89 87 1 
146 89 96 1 
147 90 88 1 
148 91 90 1 
149 92 90 1 
150 93 90 1 
151 94 89 1 
152 95 89 1 
153 98 83 1 
154 99 82 1 
155 100 81 1 
156 101 80 1 
157 102 80 1 
158 103 80 1 
159 105 78 1 
160 106 77 1 
161 107 76 1 
162 108 72 1 
163 109 72 1 
164 110 70 1 
165 111 70 1 
166 121 51 1 
167 122 51 1 
168 156 3 1 
169 157 3 1 
170 158 2 1 
171 159 2 1 
@<TRIPOS>SUBSTRUCTURE
1 NIL_1 1 RESIDUE 1 A NIL 1
