@<TRIPOS>MOLECULE
NIL
162 171 1 0 0
POLYMER
CHARGES


@<TRIPOS>ATOM
1 CQ 90.2904 56.9016 -29.3654 C.3 1 NIL_1    0.000
2 C_1816 89.472 55.696 -29.854 C.3 1 NIL_1    0.000
3 C_1818 90.066 56.980 -27.847 C.3 1 NIL_1    0.000
4 C_1854 89.902 58.179 -30.079 C.2 1 NIL_1    0.000
5 NH 91.694 56.845 -29.752 N.am 1 NIL_1    0.000
6 N 88.640 55.210 -28.740 N.am 1 NIL_1    0.000
7 CP 89.128 55.809 -27.477 C.3 1 NIL_1    0.000
8 N 90.990 58.648 -30.736 N.am 1 NIL_1    0.000
9 O 88.802 58.698 -30.071 O.2 1 NIL_1    0.000
10 C_1856 92.074 57.863 -30.543 C.2 1 NIL_1    0.000
11 C_1841 87.724 54.207 -28.882 C.2 1 NIL_1    0.000
12 C_1838 89.895 54.799 -26.621 C.2 1 NIL_1    0.000
13 C_1868 90.993 59.844 -31.599 C.3 1 NIL_1    0.000
14 O 93.189 58.034 -30.995 O.2 1 NIL_1    0.000
15 O 87.581 53.707 -29.981 O.2 1 NIL_1    0.000
16 C_1840 86.935 53.773 -27.635 C.3 1 NIL_1    0.000
17 O 90.333 53.782 -27.130 O.2 1 NIL_1    0.000
18 N 90.113 55.056 -25.295 N.am 1 NIL_1    0.000
19 C_1869 91.741 61.023 -31.004 C.2 1 NIL_1    0.000
20 N 86.109 52.521 -27.621 N.am 1 NIL_1    0.000
21 C_1829 90.871 54.097 -24.461 C.3 1 NIL_1    0.000
22 C_1871 89.540 56.174 -24.508 C.3 1 NIL_1    0.000
23 C_2204 91.287 61.630 -29.904 C.2 1 NIL_1    0.000
24 C_2212 92.858 61.485 -31.574 C.2 1 NIL_1    0.000
25 C_1843 85.929 51.748 -26.501 C.2 1 NIL_1    0.000
26 C_1872 85.284 52.234 -28.827 C.3 1 NIL_1    0.000
27 C_1830 92.306 53.868 -24.929 C.2 1 NIL_1    0.000
28 C_1876 90.451 57.418 -24.393 C.3 1 NIL_1    0.000
29 C_2206 91.937 62.673 -29.385 C.2 1 NIL_1    0.000
30 C_2210 93.510 62.529 -31.058 C.2 1 NIL_1    0.000
31 AP 86.328 52.267 -25.113 C.3 1 NIL_1    0.000
32 O 85.417 50.647 -26.582 O.2 1 NIL_1    0.000
33 C_1879 84.012 53.097 -28.916 C.3 1 NIL_1    0.000
34 O 92.855 54.629 -25.704 O.2 1 NIL_1    0.000
35 N 92.962 52.783 -24.441 N.am 1 NIL_1    0.000
36 O 91.757 57.073 -23.874 O.3 1 NIL_1    0.000
37 C_2208 93.052 63.137 -29.953 C.2 1 NIL_1    0.000
38 C_1827 85.088 52.614 -24.265 C.3 1 NIL_1    0.000
39 N 87.116 51.273 -24.360 N.am 1 NIL_1    0.000
40 O 84.361 54.438 -29.320 O.3 1 NIL_1    0.000
41 C_1813 94.262 52.328 -24.936 C.3 1 NIL_1    0.000
42 BP 92.462 51.826 -23.437 C.3 1 NIL_1    0.000
43 C_1878 91.864 56.955 -22.436 C.3 1 NIL_1    0.000
44 O 93.662 64.215 -29.360 O.3 1 NIL_1    0.000
45 AQ 85.019 51.548 -23.156 C.3 1 NIL_1    0.000
46 C_1825 86.400 50.872 -23.140 C.3 1 NIL_1    0.000
47 C_1844 88.352 50.859 -24.750 C.2 1 NIL_1    0.000
48 C_1881 83.239 55.340 -29.406 C.3 1 NIL_1    0.000
49 BQ 94.838 51.382 -23.873 C.3 1 NIL_1    0.000
50 C_1833 91.398 50.894 -24.015 C.2 1 NIL_1    0.000
51 C_1815 93.668 51.001 -22.950 C.3 1 NIL_1    0.000
52 C_2271 94.721 64.916 -30.057 C.3 1 NIL_1    0.000
53 C_1846 83.891 50.563 -23.382 C.2 1 NIL_1    0.000
54 NH 84.606 52.074 -21.863 N.am 1 NIL_1    0.000
55 O 88.833 51.254 -25.794 O.2 1 NIL_1    0.000
56 C_1835 89.130 49.898 -23.858 C.3 1 NIL_1    0.000
57 C_1850 95.529 50.184 -24.481 C.2 1 NIL_1    0.000
58 NH 95.953 51.957 -23.146 N.am 1 NIL_1    0.000
59 O 91.530 50.465 -25.148 O.2 1 NIL_1    0.000
60 N 90.312 50.551 -23.257 N.am 1 NIL_1    0.000
61 N 83.019 50.673 -22.350 N.am 1 NIL_1    0.000
62 O 83.792 49.791 -24.317 O.2 1 NIL_1    0.000
63 C_1848 83.449 51.557 -21.419 C.2 1 NIL_1    0.000
64 N 96.818 50.182 -24.059 N.am 1 NIL_1    0.000
65 O 95.015 49.377 -25.231 O.2 1 NIL_1    0.000
66 C_1852 97.083 51.243 -23.259 C.2 1 NIL_1    0.000
67 C_1870 90.134 50.786 -21.804 C.3 1 NIL_1    0.000
68 C_1866 81.781 49.884 -22.199 C.3 1 NIL_1    0.000
69 O 82.913 51.834 -20.365 O.2 1 NIL_1    0.000
70 C_1864 97.857 49.222 -24.478 C.3 1 NIL_1    0.000
71 O 98.144 51.521 -22.736 O.2 1 NIL_1    0.000
72 C_1873 90.392 49.543 -20.925 C.3 1 NIL_1    0.000
73 C_1867 80.941 49.713 -23.451 C.2 1 NIL_1    0.000
74 C_1865 97.429 47.798 -24.775 C.2 1 NIL_1    0.000
75 O 91.745 49.060 -21.096 O.3 1 NIL_1    0.000
76 C_2172 80.802 48.507 -24.006 C.2 1 NIL_1    0.000
77 C_2180 80.325 50.756 -24.016 C.2 1 NIL_1    0.000
78 C_2196 97.113 46.960 -23.784 C.2 1 NIL_1    0.000
79 C_2188 97.370 47.355 -26.035 C.2 1 NIL_1    0.000
80 C_1875 91.903 47.913 -21.964 C.3 1 NIL_1    0.000
81 C_2174 80.065 48.341 -25.106 C.2 1 NIL_1    0.000
82 C_2178 79.586 50.591 -25.117 C.2 1 NIL_1    0.000
83 C_2194 96.744 45.704 -24.045 C.2 1 NIL_1    0.000
84 C_2190 97.001 46.101 -26.298 C.2 1 NIL_1    0.000
85 C_2176 79.445 49.386 -25.674 C.2 1 NIL_1    0.000
86 C_2192 96.680 45.263 -25.309 C.2 1 NIL_1    0.000
87 O 78.672 49.294 -26.806 O.3 1 NIL_1    0.000
88 O 96.321 43.983 -25.646 O.3 1 NIL_1    0.000
89 C_2273 78.224 47.995 -27.266 C.3 1 NIL_1    0.000
90 C_2269 95.405 43.268 -24.780 C.3 1 NIL_1    0.000
91 H_22691 95.156 42.314 -25.250 H 1 NIL_1    0.000
92 H_22692 94.494 43.858 -24.649 H 1 NIL_1    0.000
93 H_22693 95.874 43.076 -23.813 H 1 NIL_1    0.000
94 H_22731 79.086 47.378 -27.535 H 1 NIL_1    0.000
95 H_22732 77.596 48.137 -28.148 H 1 NIL_1    0.000
96 H_22733 77.640 47.509 -26.479 H 1 NIL_1    0.000
97 H_2190 96.963 45.762 -27.331 H 1 NIL_1    0.000
98 H_2194 96.509 45.051 -23.210 H 1 NIL_1    0.000
99 H_2178 79.088 51.452 -25.559 H 1 NIL_1    0.000
100 H_2174 79.986 47.341 -25.521 H 1 NIL_1    0.000
101 H_18751 91.501 48.138 -22.955 H 1 NIL_1    0.000
102 H_18752 91.373 47.060 -21.535 H 1 NIL_1    0.000
103 H_18753 92.967 47.678 -22.048 H 1 NIL_1    0.000
104 H_2188 97.624 48.019 -26.859 H 1 NIL_1    0.000
105 H_2196 97.160 47.298 -22.752 H 1 NIL_1    0.000
106 H_2180 80.421 51.748 -23.582 H 1 NIL_1    0.000
107 H_2172 81.295 47.645 -23.561 H 1 NIL_1    0.000
108 H_18731 90.274 49.827 -19.877 H 1 NIL_1    0.000
109 H_18732 89.683 48.744 -21.159 H 1 NIL_1    0.000
110 H_18641 98.613 49.182 -23.686 H 1 NIL_1    0.000
111 H_18642 98.348 49.644 -25.360 H 1 NIL_1    0.000
112 H_18661 81.156 50.356 -21.436 H 1 NIL_1    0.000
113 H_18662 82.066 48.902 -21.814 H 1 NIL_1    0.000
114 H_18701 89.106 51.114 -21.634 H 1 NIL_1    0.000
115 H_18702 90.772 51.589 -21.442 H 1 NIL_1    0.000
116 H_18351 88.483 49.477 -23.085 H 1 NIL_1    0.000
117 H_18352 89.458 49.068 -24.490 H 1 NIL_1    0.000
118 H_22711 95.028 65.774 -29.453 H 1 NIL_1    0.000
119 H_22712 94.353 65.268 -31.024 H 1 NIL_1    0.000
120 H_22713 95.577 64.250 -30.197 H 1 NIL_1    0.000
121 H_18151 93.890 51.250 -21.908 H 1 NIL_1    0.000
122 H_18152 93.467 49.931 -23.001 H 1 NIL_1    0.000
123 H_18811 83.586 56.309 -29.771 H 1 NIL_1    0.000
124 H_18812 82.794 55.459 -28.414 H 1 NIL_1    0.000
125 H_18813 82.498 54.928 -30.095 H 1 NIL_1    0.000
126 H_18251 86.972 51.208 -22.270 H 1 NIL_1    0.000
127 H_18252 86.297 49.784 -23.105 H 1 NIL_1    0.000
128 H_18781 92.881 56.641 -22.184 H 1 NIL_1    0.000
129 H_18782 91.148 56.217 -22.065 H 1 NIL_1    0.000
130 H_18783 91.661 57.927 -21.981 H 1 NIL_1    0.000
131 HP 92.054 52.413 -22.615 H 1 NIL_1    0.000
132 H_18131 94.931 53.173 -25.118 H 1 NIL_1    0.000
133 H_18132 94.094 51.791 -25.876 H 1 NIL_1    0.000
134 H_18271 85.235 53.599 -23.817 H 1 NIL_1    0.000
135 H_18272 84.170 52.657 -24.859 H 1 NIL_1    0.000
136 H_18791 83.340 52.670 -29.665 H 1 NIL_1    0.000
137 H_18792 83.505 53.123 -27.948 H 1 NIL_1    0.000
138 HP 86.925 53.173 -25.187 H 1 NIL_1    0.000
139 H_2210 94.413 62.868 -31.557 H 1 NIL_1    0.000
140 H_2206 91.546 63.150 -28.489 H 1 NIL_1    0.000
141 H_18761 90.593 57.864 -25.377 H 1 NIL_1    0.000
142 H_18762 89.987 58.164 -23.741 H 1 NIL_1    0.000
143 H_18721 84.957 51.192 -28.803 H 1 NIL_1    0.000
144 H_18722 85.848 52.314 -29.751 H 1 NIL_1    0.000
145 H_2212 93.246 61.010 -32.473 H 1 NIL_1    0.000
146 H_2204 90.377 61.276 -29.424 H 1 NIL_1    0.000
147 H_18711 89.311 55.818 -23.499 H 1 NIL_1    0.000
148 H_18712 88.585 56.479 -24.940 H 1 NIL_1    0.000
149 H_18291 90.341 53.146 -24.500 H 1 NIL_1    0.000
150 H_18292 90.921 54.420 -23.420 H 1 NIL_1    0.000
151 H_18401 87.704 53.648 -26.879 H 1 NIL_1    0.000
152 H_18402 86.300 54.617 -27.342 H 1 NIL_1    0.000
153 H_18681 89.963 60.144 -31.806 H 1 NIL_1    0.000
154 H_18682 91.443 59.564 -32.557 H 1 NIL_1    0.000
155 HP 88.266 56.174 -26.917 H 1 NIL_1    0.000
156 H_18181 89.609 57.931 -27.563 H 1 NIL_1    0.000
157 H_18182 91.023 56.897 -27.322 H 1 NIL_1    0.000
158 H_18161 88.839 55.972 -30.702 H 1 NIL_1    0.000
159 H_18162 90.140 54.885 -30.160 H 1 NIL_1    0.000
160 HH 95.869 52.807 -22.610 H 1 NIL_1    0.000
161 HH 85.157 52.746 -21.349 H 1 NIL_1    0.000
162 HH 92.317 56.117 -29.434 H 1 NIL_1    0.000
@<TRIPOS>BOND
1 1 2 1 
2 3 1 1 
3 4 1 1 
4 5 10 1 
5 5 1 1 
6 5 162 1 
7 6 2 1 
8 7 3 1 
9 7 6 1 
10 7 155 1 
11 8 4 1 
12 9 4 2 
13 10 8 1 
14 11 6 1 
15 12 7 1 
16 13 8 1 
17 13 153 1 
18 13 154 1 
19 14 10 2 
20 15 11 2 
21 16 20 1 
22 16 11 1 
23 16 151 1 
24 16 152 1 
25 17 12 2 
26 18 12 1 
27 19 13 1 
28 20 25 1 
29 21 18 1 
30 21 27 1 
31 21 149 1 
32 21 150 1 
33 22 18 1 
34 22 28 1 
35 22 147 1 
36 22 148 1 
37 23 19 2 
38 23 146 1 
39 24 30 2 
40 24 19 1 
41 24 145 1 
42 25 31 1 
43 26 20 1 
44 26 33 1 
45 26 143 1 
46 26 144 1 
47 27 35 1 
48 28 141 1 
49 28 142 1 
50 29 23 1 
51 29 140 1 
52 30 37 1 
53 30 139 1 
54 31 138 1 
55 32 25 2 
56 33 136 1 
57 33 137 1 
58 34 27 2 
59 36 28 1 
60 37 29 2 
61 38 45 1 
62 38 31 1 
63 38 134 1 
64 38 135 1 
65 39 46 1 
66 39 31 1 
67 39 47 1 
68 40 33 1 
69 41 35 1 
70 41 49 1 
71 41 132 1 
72 41 133 1 
73 42 51 1 
74 42 35 1 
75 42 131 1 
76 43 36 1 
77 43 128 1 
78 43 129 1 
79 43 130 1 
80 44 37 1 
81 45 46 1 
82 46 126 1 
83 46 127 1 
84 48 40 1 
85 48 123 1 
86 48 124 1 
87 48 125 1 
88 50 42 1 
89 50 59 2 
90 51 49 1 
91 52 44 1 
92 52 118 1 
93 52 119 1 
94 52 120 1 
95 53 45 1 
96 54 63 1 
97 54 45 1 
98 54 161 1 
99 55 47 2 
100 56 60 1 
101 56 47 1 
102 56 116 1 
103 56 117 1 
104 57 49 1 
105 58 66 1 
106 58 49 1 
107 58 160 1 
108 60 50 1 
109 61 53 1 
110 62 53 2 
111 63 61 1 
112 64 57 1 
113 65 57 2 
114 66 64 1 
115 67 60 1 
116 67 72 1 
117 67 114 1 
118 67 115 1 
119 68 61 1 
120 68 112 1 
121 68 113 1 
122 69 63 2 
123 70 64 1 
124 70 74 1 
125 71 66 2 
126 73 68 1 
127 73 76 2 
128 73 77 1 
129 74 78 1 
130 75 72 1 
131 77 82 2 
132 79 84 1 
133 79 74 2 
134 79 104 1 
135 80 75 1 
136 81 76 1 
137 82 85 1 
138 83 78 2 
139 84 86 2 
140 84 97 1 
141 85 81 2 
142 86 88 1 
143 86 83 1 
144 87 85 1 
145 89 87 1 
146 89 96 1 
147 90 88 1 
148 91 90 1 
149 92 90 1 
150 93 90 1 
151 94 89 1 
152 95 89 1 
153 98 83 1 
154 99 82 1 
155 100 81 1 
156 101 80 1 
157 102 80 1 
158 103 80 1 
159 105 78 1 
160 106 77 1 
161 107 76 1 
162 108 72 1 
163 109 72 1 
164 110 70 1 
165 111 70 1 
166 121 51 1 
167 122 51 1 
168 156 3 1 
169 157 3 1 
170 158 2 1 
171 159 2 1 
@<TRIPOS>SUBSTRUCTURE
1 NIL_1 1 RESIDUE 1 A NIL 1
