@<TRIPOS>MOLECULE
NIL
162 171 1 0 0
POLYMER
CHARGES


@<TRIPOS>ATOM
1 CQ 82.0267 48.4159 -37.0844 C.3 1 NIL_1    0.000
2 C_1816 81.603 46.975 -37.388 C.3 1 NIL_1    0.000
3 C_1818 82.509 48.365 -35.638 C.3 1 NIL_1    0.000
4 C_1854 80.913 49.427 -37.229 C.2 1 NIL_1    0.000
5 NH 82.992 48.990 -38.005 N.am 1 NIL_1    0.000
6 N 81.244 46.343 -36.105 N.am 1 NIL_1    0.000
7 CP 81.731 47.200 -34.991 C.3 1 NIL_1    0.000
8 N 81.361 50.429 -38.022 N.am 1 NIL_1    0.000
9 O 79.817 49.369 -36.703 O.2 1 NIL_1    0.000
10 C_1856 82.608 50.181 -38.493 C.2 1 NIL_1    0.000
11 C_1841 80.302 45.367 -35.979 C.2 1 NIL_1    0.000
12 C_1838 82.643 46.667 -33.879 C.2 1 NIL_1    0.000
13 C_1868 80.630 51.685 -38.261 C.3 1 NIL_1    0.000
14 O 83.277 50.892 -39.215 O.2 1 NIL_1    0.000
15 O 79.883 45.047 -34.882 O.2 1 NIL_1    0.000
16 C_1840 79.756 44.751 -37.269 C.3 1 NIL_1    0.000
17 O 82.801 47.359 -32.891 O.2 1 NIL_1    0.000
18 N 83.382 45.532 -34.030 N.am 1 NIL_1    0.000
19 C_1869 80.465 52.024 -39.727 C.2 1 NIL_1    0.000
20 N 79.157 43.400 -37.133 N.am 1 NIL_1    0.000
21 C_1829 82.830 44.165 -34.143 C.3 1 NIL_1    0.000
22 C_1871 84.779 45.478 -33.547 C.3 1 NIL_1    0.000
23 C_2204 79.750 51.226 -40.524 C.2 1 NIL_1    0.000
24 C_2212 81.032 53.116 -40.249 C.2 1 NIL_1    0.000
25 C_1843 77.960 43.214 -36.494 C.2 1 NIL_1    0.000
26 C_1872 79.851 42.396 -37.974 C.3 1 NIL_1    0.000
27 C_1830 82.044 43.722 -32.908 C.2 1 NIL_1    0.000
28 C_1876 85.768 45.821 -34.683 C.3 1 NIL_1    0.000
29 C_2206 79.602 51.510 -41.819 C.2 1 NIL_1    0.000
30 C_2210 80.886 53.402 -41.543 C.2 1 NIL_1    0.000
31 AP 77.352 41.821 -36.303 C.3 1 NIL_1    0.000
32 O 77.350 44.166 -36.046 O.2 1 NIL_1    0.000
33 C_1879 81.173 41.859 -37.377 C.3 1 NIL_1    0.000
34 O 81.333 44.499 -32.297 O.2 1 NIL_1    0.000
35 N 82.124 42.416 -32.530 N.am 1 NIL_1    0.000
36 O 87.001 45.076 -34.545 O.3 1 NIL_1    0.000
37 C_2208 80.169 52.607 -42.342 C.2 1 NIL_1    0.000
38 C_1827 76.518 41.463 -37.552 C.3 1 NIL_1    0.000
39 N 78.210 40.648 -35.982 N.am 1 NIL_1    0.000
40 O 82.225 42.851 -37.446 O.3 1 NIL_1    0.000
41 C_1813 83.094 41.420 -33.024 C.3 1 NIL_1    0.000
42 BP 81.228 41.758 -31.556 C.3 1 NIL_1    0.000
43 C_1878 87.792 45.341 -33.366 C.3 1 NIL_1    0.000
44 O 80.072 52.961 -43.664 O.3 1 NIL_1    0.000
45 AQ 76.560 39.933 -37.616 C.3 1 NIL_1    0.000
46 C_1825 77.849 39.540 -36.883 C.3 1 NIL_1    0.000
47 C_1844 79.084 40.468 -34.950 C.2 1 NIL_1    0.000
48 C_1881 82.809 43.074 -38.752 C.3 1 NIL_1    0.000
49 BQ 82.910 40.139 -32.186 C.3 1 NIL_1    0.000
50 C_1833 79.728 42.066 -31.622 C.2 1 NIL_1    0.000
51 C_1815 81.480 40.240 -31.645 C.3 1 NIL_1    0.000
52 C_2271 78.957 52.467 -44.446 C.3 1 NIL_1    0.000
53 C_1846 76.490 39.372 -39.017 C.2 1 NIL_1    0.000
54 NH 75.380 39.297 -37.048 N.am 1 NIL_1    0.000
55 O 79.542 39.366 -34.716 O.2 1 NIL_1    0.000
56 C_1835 79.554 41.646 -34.110 C.3 1 NIL_1    0.000
57 C_1850 83.166 38.867 -32.959 C.2 1 NIL_1    0.000
58 NH 83.896 39.972 -31.126 N.am 1 NIL_1    0.000
59 O 79.226 42.559 -30.631 O.2 1 NIL_1    0.000
60 N 78.987 41.789 -32.749 N.am 1 NIL_1    0.000
61 N 75.425 38.540 -39.086 N.am 1 NIL_1    0.000
62 O 77.259 39.616 -39.927 O.2 1 NIL_1    0.000
63 C_1848 74.749 38.483 -37.913 C.2 1 NIL_1    0.000
64 N 84.130 38.168 -32.314 N.am 1 NIL_1    0.000
65 O 82.611 38.528 -33.986 O.2 1 NIL_1    0.000
66 C_1852 84.572 38.813 -31.210 C.2 1 NIL_1    0.000
67 C_1870 77.499 41.796 -32.821 C.3 1 NIL_1    0.000
68 C_1866 75.059 37.768 -40.287 C.3 1 NIL_1    0.000
69 O 73.758 37.825 -37.668 O.2 1 NIL_1    0.000
70 C_1864 84.676 36.878 -32.781 C.3 1 NIL_1    0.000
71 O 85.424 38.432 -30.432 O.2 1 NIL_1    0.000
72 C_1873 76.690 41.779 -31.510 C.3 1 NIL_1    0.000
73 C_1867 76.136 36.777 -40.683 C.2 1 NIL_1    0.000
74 C_1865 86.113 36.989 -33.258 C.2 1 NIL_1    0.000
75 O 75.309 41.514 -31.838 O.3 1 NIL_1    0.000
76 C_2172 76.469 35.772 -39.867 C.2 1 NIL_1    0.000
77 C_2180 76.777 36.893 -41.850 C.2 1 NIL_1    0.000
78 C_2196 86.471 37.928 -34.139 C.2 1 NIL_1    0.000
79 C_2188 87.049 36.149 -32.805 C.2 1 NIL_1    0.000
80 C_1875 74.400 41.521 -30.717 C.3 1 NIL_1    0.000
81 C_2174 77.426 34.909 -40.207 C.2 1 NIL_1    0.000
82 C_2178 77.733 36.030 -42.194 C.2 1 NIL_1    0.000
83 C_2194 87.735 38.031 -34.549 C.2 1 NIL_1    0.000
84 C_2190 88.315 36.247 -33.216 C.2 1 NIL_1    0.000
85 C_2176 78.072 35.025 -41.371 C.2 1 NIL_1    0.000
86 C_2192 88.673 37.195 -34.096 C.2 1 NIL_1    0.000
87 O 79.055 34.105 -41.646 O.3 1 NIL_1    0.000
88 O 89.950 37.364 -34.573 O.3 1 NIL_1    0.000
89 C_2273 79.683 34.092 -42.952 C.3 1 NIL_1    0.000
90 C_2269 91.001 36.454 -34.164 C.3 1 NIL_1    0.000
91 H_22691 91.925 36.734 -34.676 H 1 NIL_1    0.000
92 H_22692 90.730 35.432 -34.442 H 1 NIL_1    0.000
93 H_22693 91.149 36.527 -33.083 H 1 NIL_1    0.000
94 H_22731 80.442 33.305 -42.969 H 1 NIL_1    0.000
95 H_22732 80.162 35.056 -43.142 H 1 NIL_1    0.000
96 H_22733 78.929 33.886 -43.717 H 1 NIL_1    0.000
97 H_2190 89.038 35.541 -32.818 H 1 NIL_1    0.000
98 H_2194 88.000 38.807 -35.263 H 1 NIL_1    0.000
99 H_2178 78.227 36.171 -43.152 H 1 NIL_1    0.000
100 H_2174 77.682 34.103 -39.523 H 1 NIL_1    0.000
101 H_18751 74.423 42.507 -30.244 H 1 NIL_1    0.000
102 H_18752 74.700 40.754 -29.998 H 1 NIL_1    0.000
103 H_18753 73.390 41.312 -31.078 H 1 NIL_1    0.000
104 H_2188 86.782 35.372 -32.092 H 1 NIL_1    0.000
105 H_2196 85.730 38.622 -34.528 H 1 NIL_1    0.000
106 H_2180 76.524 37.703 -42.531 H 1 NIL_1    0.000
107 H_2172 75.959 35.658 -38.913 H 1 NIL_1    0.000
108 H_18731 77.052 40.988 -30.846 H 1 NIL_1    0.000
109 H_18732 76.755 42.750 -31.010 H 1 NIL_1    0.000
110 H_18641 84.059 36.498 -33.599 H 1 NIL_1    0.000
111 H_18642 84.607 36.162 -31.958 H 1 NIL_1    0.000
112 H_18661 74.875 38.473 -41.103 H 1 NIL_1    0.000
113 H_18662 74.127 37.227 -40.102 H 1 NIL_1    0.000
114 H_18701 77.182 40.911 -33.379 H 1 NIL_1    0.000
115 H_18702 77.199 42.680 -33.391 H 1 NIL_1    0.000
116 H_18351 80.624 41.488 -34.078 H 1 NIL_1    0.000
117 H_18352 79.396 42.575 -34.643 H 1 NIL_1    0.000
118 H_22711 79.009 51.378 -44.522 H 1 NIL_1    0.000
119 H_22712 79.021 52.898 -45.448 H 1 NIL_1    0.000
120 H_22713 78.018 52.772 -43.976 H 1 NIL_1    0.000
121 H_18151 81.351 39.743 -30.682 H 1 NIL_1    0.000
122 H_18152 80.790 39.779 -32.353 H 1 NIL_1    0.000
123 H_18811 82.040 43.401 -39.457 H 1 NIL_1    0.000
124 H_18812 83.267 42.147 -39.108 H 1 NIL_1    0.000
125 H_18813 83.571 43.851 -38.666 H 1 NIL_1    0.000
126 H_18251 77.707 38.612 -36.319 H 1 NIL_1    0.000
127 H_18252 78.665 39.400 -37.598 H 1 NIL_1    0.000
128 H_18781 88.766 44.859 -33.488 H 1 NIL_1    0.000
129 H_18782 87.292 44.928 -32.487 H 1 NIL_1    0.000
130 H_18783 87.928 46.419 -33.251 H 1 NIL_1    0.000
131 HP 81.563 42.091 -30.570 H 1 NIL_1    0.000
132 H_18131 84.113 41.802 -32.931 H 1 NIL_1    0.000
133 H_18132 82.874 41.220 -34.077 H 1 NIL_1    0.000
134 H_18271 75.498 41.848 -37.483 H 1 NIL_1    0.000
135 H_18272 76.977 41.883 -38.450 H 1 NIL_1    0.000
136 H_18791 81.026 41.595 -36.331 H 1 NIL_1    0.000
137 H_18792 81.493 40.966 -37.921 H 1 NIL_1    0.000
138 HP 76.651 41.920 -35.469 H 1 NIL_1    0.000
139 H_2210 81.358 54.295 -41.949 H 1 NIL_1    0.000
140 H_2206 79.019 50.827 -42.429 H 1 NIL_1    0.000
141 H_18761 85.332 45.548 -35.648 H 1 NIL_1    0.000
142 H_18762 85.986 46.893 -34.683 H 1 NIL_1    0.000
143 H_18721 80.041 42.830 -38.959 H 1 NIL_1    0.000
144 H_18722 79.196 41.548 -38.155 H 1 NIL_1    0.000
145 H_2212 81.620 53.780 -39.621 H 1 NIL_1    0.000
146 H_2204 79.285 50.332 -40.116 H 1 NIL_1    0.000
147 H_18711 85.006 44.484 -33.151 H 1 NIL_1    0.000
148 H_18712 84.924 46.192 -32.732 H 1 NIL_1    0.000
149 H_18291 83.646 43.466 -34.328 H 1 NIL_1    0.000
150 H_18292 82.173 44.081 -35.003 H 1 NIL_1    0.000
151 H_18401 78.996 45.443 -37.644 H 1 NIL_1    0.000
152 H_18402 80.567 44.723 -37.999 H 1 NIL_1    0.000
153 H_18681 81.170 52.488 -37.751 H 1 NIL_1    0.000
154 H_18682 79.639 51.617 -37.805 H 1 NIL_1    0.000
155 HP 80.843 47.606 -34.498 H 1 NIL_1    0.000
156 H_18181 82.344 49.309 -35.109 H 1 NIL_1    0.000
157 H_18182 83.583 48.157 -35.631 H 1 NIL_1    0.000
158 H_18161 80.758 46.981 -38.083 H 1 NIL_1    0.000
159 H_18162 82.436 46.419 -37.828 H 1 NIL_1    0.000
160 HH 84.010 40.636 -30.374 H 1 NIL_1    0.000
161 HH 75.087 39.446 -36.094 H 1 NIL_1    0.000
162 HH 83.888 48.565 -38.188 H 1 NIL_1    0.000
@<TRIPOS>BOND
1 1 2 1 
2 3 1 1 
3 4 1 1 
4 5 10 1 
5 5 1 1 
6 5 162 1 
7 6 2 1 
8 7 3 1 
9 7 6 1 
10 7 155 1 
11 8 4 1 
12 9 4 2 
13 10 8 1 
14 11 6 1 
15 12 7 1 
16 13 8 1 
17 13 153 1 
18 13 154 1 
19 14 10 2 
20 15 11 2 
21 16 20 1 
22 16 11 1 
23 16 151 1 
24 16 152 1 
25 17 12 2 
26 18 12 1 
27 19 13 1 
28 20 25 1 
29 21 18 1 
30 21 27 1 
31 21 149 1 
32 21 150 1 
33 22 18 1 
34 22 28 1 
35 22 147 1 
36 22 148 1 
37 23 19 2 
38 23 146 1 
39 24 30 2 
40 24 19 1 
41 24 145 1 
42 25 31 1 
43 26 20 1 
44 26 33 1 
45 26 143 1 
46 26 144 1 
47 27 35 1 
48 28 141 1 
49 28 142 1 
50 29 23 1 
51 29 140 1 
52 30 37 1 
53 30 139 1 
54 31 138 1 
55 32 25 2 
56 33 136 1 
57 33 137 1 
58 34 27 2 
59 36 28 1 
60 37 29 2 
61 38 45 1 
62 38 31 1 
63 38 134 1 
64 38 135 1 
65 39 46 1 
66 39 31 1 
67 39 47 1 
68 40 33 1 
69 41 35 1 
70 41 49 1 
71 41 132 1 
72 41 133 1 
73 42 51 1 
74 42 35 1 
75 42 131 1 
76 43 36 1 
77 43 128 1 
78 43 129 1 
79 43 130 1 
80 44 37 1 
81 45 46 1 
82 46 126 1 
83 46 127 1 
84 48 40 1 
85 48 123 1 
86 48 124 1 
87 48 125 1 
88 50 42 1 
89 50 59 2 
90 51 49 1 
91 52 44 1 
92 52 118 1 
93 52 119 1 
94 52 120 1 
95 53 45 1 
96 54 63 1 
97 54 45 1 
98 54 161 1 
99 55 47 2 
100 56 60 1 
101 56 47 1 
102 56 116 1 
103 56 117 1 
104 57 49 1 
105 58 66 1 
106 58 49 1 
107 58 160 1 
108 60 50 1 
109 61 53 1 
110 62 53 2 
111 63 61 1 
112 64 57 1 
113 65 57 2 
114 66 64 1 
115 67 60 1 
116 67 72 1 
117 67 114 1 
118 67 115 1 
119 68 61 1 
120 68 112 1 
121 68 113 1 
122 69 63 2 
123 70 64 1 
124 70 74 1 
125 71 66 2 
126 73 68 1 
127 73 76 2 
128 73 77 1 
129 74 78 1 
130 75 72 1 
131 77 82 2 
132 79 84 1 
133 79 74 2 
134 79 104 1 
135 80 75 1 
136 81 76 1 
137 82 85 1 
138 83 78 2 
139 84 86 2 
140 84 97 1 
141 85 81 2 
142 86 88 1 
143 86 83 1 
144 87 85 1 
145 89 87 1 
146 89 96 1 
147 90 88 1 
148 91 90 1 
149 92 90 1 
150 93 90 1 
151 94 89 1 
152 95 89 1 
153 98 83 1 
154 99 82 1 
155 100 81 1 
156 101 80 1 
157 102 80 1 
158 103 80 1 
159 105 78 1 
160 106 77 1 
161 107 76 1 
162 108 72 1 
163 109 72 1 
164 110 70 1 
165 111 70 1 
166 121 51 1 
167 122 51 1 
168 156 3 1 
169 157 3 1 
170 158 2 1 
171 159 2 1 
@<TRIPOS>SUBSTRUCTURE
1 NIL_1 1 RESIDUE 1 A NIL 1
