@<TRIPOS>MOLECULE
NIL
162 171 1 0 0
POLYMER
CHARGES


@<TRIPOS>ATOM
1 CQ 81.6922 50.2123 -35.1402 C.3 1 NIL_1    0.000
2 C_1816 82.718 49.329 -35.861 C.3 1 NIL_1    0.000
3 C_1818 81.281 49.368 -33.930 C.3 1 NIL_1    0.000
4 C_1854 80.507 50.525 -36.028 C.2 1 NIL_1    0.000
5 NH 82.143 51.565 -34.864 N.am 1 NIL_1    0.000
6 N 82.232 47.956 -35.684 N.am 1 NIL_1    0.000
7 CP 81.403 47.917 -34.454 C.3 1 NIL_1    0.000
8 N 80.437 51.866 -36.178 N.am 1 NIL_1    0.000
9 O 79.741 49.721 -36.524 O.2 1 NIL_1    0.000
10 C_1856 81.419 52.505 -35.498 C.2 1 NIL_1    0.000
11 C_1841 82.183 47.116 -36.751 C.2 1 NIL_1    0.000
12 C_1838 81.796 46.966 -33.314 C.2 1 NIL_1    0.000
13 C_1868 79.425 52.539 -37.009 C.3 1 NIL_1    0.000
14 O 81.627 53.701 -35.464 O.2 1 NIL_1    0.000
15 O 83.094 47.081 -37.554 O.2 1 NIL_1    0.000
16 C_1840 80.902 46.338 -37.000 C.3 1 NIL_1    0.000
17 O 80.948 46.747 -32.470 O.2 1 NIL_1    0.000
18 N 83.023 46.355 -33.221 N.am 1 NIL_1    0.000
19 C_1869 79.699 52.281 -38.476 C.2 1 NIL_1    0.000
20 N 80.749 45.011 -36.356 N.am 1 NIL_1    0.000
21 C_1829 83.249 45.206 -32.300 C.3 1 NIL_1    0.000
22 C_1871 84.307 46.901 -33.729 C.3 1 NIL_1    0.000
23 C_2204 78.979 51.391 -39.166 C.2 1 NIL_1    0.000
24 C_2212 80.683 52.932 -39.099 C.2 1 NIL_1    0.000
25 C_1843 79.492 44.584 -36.010 C.2 1 NIL_1    0.000
26 C_1872 81.961 44.172 -36.510 C.3 1 NIL_1    0.000
27 C_1830 83.910 43.983 -32.938 C.2 1 NIL_1    0.000
28 C_1876 84.746 48.202 -33.039 C.3 1 NIL_1    0.000
29 C_2206 79.241 51.158 -40.452 C.2 1 NIL_1    0.000
30 C_2210 80.949 52.701 -40.384 C.2 1 NIL_1    0.000
31 AP 79.176 43.146 -35.590 C.3 1 NIL_1    0.000
32 O 78.557 45.364 -36.021 O.2 1 NIL_1    0.000
33 C_1879 82.245 43.749 -37.969 C.3 1 NIL_1    0.000
34 O 84.215 43.954 -34.114 O.2 1 NIL_1    0.000
35 N 84.175 42.908 -32.150 N.am 1 NIL_1    0.000
36 O 84.807 47.996 -31.612 O.3 1 NIL_1    0.000
37 C_2208 80.228 51.806 -41.077 C.2 1 NIL_1    0.000
38 C_1827 78.908 42.263 -36.813 C.3 1 NIL_1    0.000
39 N 80.086 42.402 -34.693 N.am 1 NIL_1    0.000
40 O 83.092 42.576 -37.979 O.3 1 NIL_1    0.000
41 C_1813 85.018 41.784 -32.596 C.3 1 NIL_1    0.000
42 BP 83.770 42.675 -30.748 C.3 1 NIL_1    0.000
43 C_1878 85.058 49.193 -30.851 C.3 1 NIL_1    0.000
44 O 80.435 51.514 -42.402 O.3 1 NIL_1    0.000
45 AQ 79.140 40.850 -36.274 C.3 1 NIL_1    0.000
46 C_1825 80.220 41.022 -35.187 C.3 1 NIL_1    0.000
47 C_1844 80.607 42.917 -33.550 C.2 1 NIL_1    0.000
48 C_1881 84.469 42.784 -37.595 C.3 1 NIL_1    0.000
49 BQ 85.439 41.017 -31.337 C.3 1 NIL_1    0.000
50 C_1833 82.300 42.805 -30.327 C.2 1 NIL_1    0.000
51 C_1815 84.291 41.274 -30.354 C.3 1 NIL_1    0.000
52 C_2271 81.593 52.056 -43.081 C.3 1 NIL_1    0.000
53 C_1846 79.475 39.871 -37.369 C.2 1 NIL_1    0.000
54 NH 77.917 40.244 -35.771 N.am 1 NIL_1    0.000
55 O 80.531 44.108 -33.346 O.2 1 NIL_1    0.000
56 C_1835 81.238 41.974 -32.528 C.3 1 NIL_1    0.000
57 C_1850 85.726 39.554 -31.585 C.2 1 NIL_1    0.000
58 NH 86.738 41.428 -30.826 N.am 1 NIL_1    0.000
59 O 82.093 43.191 -29.191 O.2 1 NIL_1    0.000
60 N 81.233 42.532 -31.150 N.am 1 NIL_1    0.000
61 N 78.494 38.937 -37.408 N.am 1 NIL_1    0.000
62 O 80.434 39.929 -38.115 O.2 1 NIL_1    0.000
63 C_1848 77.556 39.145 -36.452 C.2 1 NIL_1    0.000
64 N 87.008 39.306 -31.222 N.am 1 NIL_1    0.000
65 O 84.943 38.737 -32.030 O.2 1 NIL_1    0.000
66 C_1852 87.627 40.421 -30.761 C.2 1 NIL_1    0.000
67 C_1870 79.852 42.548 -30.604 C.3 1 NIL_1    0.000
68 C_1866 78.404 37.875 -38.425 C.3 1 NIL_1    0.000
69 O 76.559 38.482 -36.242 O.2 1 NIL_1    0.000
70 C_1864 87.637 37.973 -31.269 C.3 1 NIL_1    0.000
71 O 88.769 40.513 -30.358 O.2 1 NIL_1    0.000
72 C_1873 79.229 43.958 -30.552 C.3 1 NIL_1    0.000
73 C_1867 77.157 38.027 -39.277 C.2 1 NIL_1    0.000
74 C_1865 88.939 37.918 -32.046 C.2 1 NIL_1    0.000
75 O 78.021 43.905 -29.769 O.3 1 NIL_1    0.000
76 C_2172 76.158 37.146 -39.178 C.2 1 NIL_1    0.000
77 C_2180 77.025 39.053 -40.122 C.2 1 NIL_1    0.000
78 C_2196 90.094 37.632 -31.436 C.2 1 NIL_1    0.000
79 C_2188 88.950 38.150 -33.361 C.2 1 NIL_1    0.000
80 C_1875 77.289 45.148 -29.737 C.3 1 NIL_1    0.000
81 C_2174 75.044 37.297 -39.896 C.2 1 NIL_1    0.000
82 C_2178 75.912 39.207 -40.842 C.2 1 NIL_1    0.000
83 C_2194 91.236 37.589 -32.126 C.2 1 NIL_1    0.000
84 C_2190 90.091 38.110 -34.054 C.2 1 NIL_1    0.000
85 C_2176 74.902 38.332 -40.728 C.2 1 NIL_1    0.000
86 C_2192 91.250 37.833 -33.439 C.2 1 NIL_1    0.000
87 O 73.719 38.436 -41.419 O.3 1 NIL_1    0.000
88 O 92.458 37.769 -34.086 O.3 1 NIL_1    0.000
89 C_2273 73.352 39.711 -42.003 C.3 1 NIL_1    0.000
90 C_2269 92.627 38.501 -35.324 C.3 1 NIL_1    0.000
91 H_22691 92.385 39.555 -35.159 H 1 NIL_1    0.000
92 H_22692 91.981 38.080 -36.099 H 1 NIL_1    0.000
93 H_22693 93.669 38.411 -35.641 H 1 NIL_1    0.000
94 H_22731 72.329 39.644 -42.382 H 1 NIL_1    0.000
95 H_22732 74.028 39.943 -42.832 H 1 NIL_1    0.000
96 H_22733 73.406 40.493 -41.240 H 1 NIL_1    0.000
97 H_2190 90.049 38.303 -35.122 H 1 NIL_1    0.000
98 H_2194 92.164 37.356 -31.609 H 1 NIL_1    0.000
99 H_2178 75.848 40.059 -41.514 H 1 NIL_1    0.000
100 H_2174 74.240 36.571 -39.791 H 1 NIL_1    0.000
101 H_18751 76.395 45.019 -29.122 H 1 NIL_1    0.000
102 H_18752 76.996 45.421 -30.755 H 1 NIL_1    0.000
103 H_18753 77.923 45.930 -29.311 H 1 NIL_1    0.000
104 H_2188 88.020 38.375 -33.879 H 1 NIL_1    0.000
105 H_2196 90.113 37.431 -30.367 H 1 NIL_1    0.000
106 H_2180 77.827 39.781 -40.221 H 1 NIL_1    0.000
107 H_2172 76.241 36.302 -38.499 H 1 NIL_1    0.000
108 H_18731 79.922 44.665 -30.089 H 1 NIL_1    0.000
109 H_18732 78.963 44.302 -31.552 H 1 NIL_1    0.000
110 H_18641 86.937 37.265 -31.721 H 1 NIL_1    0.000
111 H_18642 87.807 37.649 -30.238 H 1 NIL_1    0.000
112 H_18661 78.398 36.908 -37.915 H 1 NIL_1    0.000
113 H_18662 79.288 37.909 -39.068 H 1 NIL_1    0.000
114 H_18701 79.865 42.121 -29.598 H 1 NIL_1    0.000
115 H_18702 79.197 41.915 -31.210 H 1 NIL_1    0.000
116 H_18351 80.637 41.064 -32.512 H 1 NIL_1    0.000
117 H_18352 82.226 41.687 -32.875 H 1 NIL_1    0.000
118 H_22711 81.593 51.700 -44.114 H 1 NIL_1    0.000
119 H_22712 82.502 51.716 -42.578 H 1 NIL_1    0.000
120 H_22713 81.543 53.148 -43.077 H 1 NIL_1    0.000
121 H_18151 84.613 41.233 -29.310 H 1 NIL_1    0.000
122 H_18152 83.505 40.529 -30.500 H 1 NIL_1    0.000
123 H_18811 84.936 43.477 -38.299 H 1 NIL_1    0.000
124 H_18812 84.992 41.825 -37.621 H 1 NIL_1    0.000
125 H_18813 84.517 43.193 -36.582 H 1 NIL_1    0.000
126 H_18251 80.082 40.295 -34.384 H 1 NIL_1    0.000
127 H_18252 81.218 40.907 -35.622 H 1 NIL_1    0.000
128 H_18781 86.001 49.638 -31.179 H 1 NIL_1    0.000
129 H_18782 85.123 48.934 -29.792 H 1 NIL_1    0.000
130 H_18783 84.237 49.898 -31.009 H 1 NIL_1    0.000
131 HP 84.316 43.409 -30.147 H 1 NIL_1    0.000
132 H_18131 85.896 42.143 -33.140 H 1 NIL_1    0.000
133 H_18132 84.421 41.142 -33.248 H 1 NIL_1    0.000
134 H_18271 77.902 42.404 -37.216 H 1 NIL_1    0.000
135 H_18272 79.628 42.485 -37.600 H 1 NIL_1    0.000
136 H_18791 81.312 43.485 -38.471 H 1 NIL_1    0.000
137 H_18792 82.727 44.555 -38.525 H 1 NIL_1    0.000
138 HP 78.234 43.213 -35.037 H 1 NIL_1    0.000
139 H_2210 81.759 53.258 -40.845 H 1 NIL_1    0.000
140 H_2206 78.643 50.428 -40.994 H 1 NIL_1    0.000
141 H_18761 85.737 48.494 -33.398 H 1 NIL_1    0.000
142 H_18762 84.036 48.999 -33.252 H 1 NIL_1    0.000
143 H_18721 81.895 43.268 -35.917 H 1 NIL_1    0.000
144 H_18722 82.822 44.722 -36.124 H 1 NIL_1    0.000
145 H_2212 81.281 53.660 -38.554 H 1 NIL_1    0.000
146 H_2204 78.173 50.846 -38.678 H 1 NIL_1    0.000
147 H_18711 84.276 47.036 -34.809 H 1 NIL_1    0.000
148 H_18712 85.108 46.183 -33.546 H 1 NIL_1    0.000
149 H_18291 82.303 44.870 -31.882 H 1 NIL_1    0.000
150 H_18292 83.877 45.525 -31.465 H 1 NIL_1    0.000
151 H_18401 80.082 47.001 -36.724 H 1 NIL_1    0.000
152 H_18402 80.833 46.193 -38.082 H 1 NIL_1    0.000
153 H_18681 79.442 53.616 -36.815 H 1 NIL_1    0.000
154 H_18682 78.437 52.163 -36.731 H 1 NIL_1    0.000
155 HP 80.397 47.606 -34.744 H 1 NIL_1    0.000
156 H_18181 80.268 49.595 -33.584 H 1 NIL_1    0.000
157 H_18182 81.969 49.543 -33.102 H 1 NIL_1    0.000
158 H_18161 82.778 49.593 -36.921 H 1 NIL_1    0.000
159 H_18162 83.707 49.425 -35.405 H 1 NIL_1    0.000
160 HH 86.941 42.378 -30.552 H 1 NIL_1    0.000
161 HH 77.364 40.657 -35.036 H 1 NIL_1    0.000
162 HH 82.953 51.765 -34.298 H 1 NIL_1    0.000
@<TRIPOS>BOND
1 1 2 1 
2 3 1 1 
3 4 1 1 
4 5 10 1 
5 5 1 1 
6 5 162 1 
7 6 2 1 
8 7 3 1 
9 7 6 1 
10 7 155 1 
11 8 4 1 
12 9 4 2 
13 10 8 1 
14 11 6 1 
15 12 7 1 
16 13 8 1 
17 13 153 1 
18 13 154 1 
19 14 10 2 
20 15 11 2 
21 16 20 1 
22 16 11 1 
23 16 151 1 
24 16 152 1 
25 17 12 2 
26 18 12 1 
27 19 13 1 
28 20 25 1 
29 21 18 1 
30 21 27 1 
31 21 149 1 
32 21 150 1 
33 22 18 1 
34 22 28 1 
35 22 147 1 
36 22 148 1 
37 23 19 2 
38 23 146 1 
39 24 30 2 
40 24 19 1 
41 24 145 1 
42 25 31 1 
43 26 20 1 
44 26 33 1 
45 26 143 1 
46 26 144 1 
47 27 35 1 
48 28 141 1 
49 28 142 1 
50 29 23 1 
51 29 140 1 
52 30 37 1 
53 30 139 1 
54 31 138 1 
55 32 25 2 
56 33 136 1 
57 33 137 1 
58 34 27 2 
59 36 28 1 
60 37 29 2 
61 38 45 1 
62 38 31 1 
63 38 134 1 
64 38 135 1 
65 39 46 1 
66 39 31 1 
67 39 47 1 
68 40 33 1 
69 41 35 1 
70 41 49 1 
71 41 132 1 
72 41 133 1 
73 42 51 1 
74 42 35 1 
75 42 131 1 
76 43 36 1 
77 43 128 1 
78 43 129 1 
79 43 130 1 
80 44 37 1 
81 45 46 1 
82 46 126 1 
83 46 127 1 
84 48 40 1 
85 48 123 1 
86 48 124 1 
87 48 125 1 
88 50 42 1 
89 50 59 2 
90 51 49 1 
91 52 44 1 
92 52 118 1 
93 52 119 1 
94 52 120 1 
95 53 45 1 
96 54 63 1 
97 54 45 1 
98 54 161 1 
99 55 47 2 
100 56 60 1 
101 56 47 1 
102 56 116 1 
103 56 117 1 
104 57 49 1 
105 58 66 1 
106 58 49 1 
107 58 160 1 
108 60 50 1 
109 61 53 1 
110 62 53 2 
111 63 61 1 
112 64 57 1 
113 65 57 2 
114 66 64 1 
115 67 60 1 
116 67 72 1 
117 67 114 1 
118 67 115 1 
119 68 61 1 
120 68 112 1 
121 68 113 1 
122 69 63 2 
123 70 64 1 
124 70 74 1 
125 71 66 2 
126 73 68 1 
127 73 76 2 
128 73 77 1 
129 74 78 1 
130 75 72 1 
131 77 82 2 
132 79 84 1 
133 79 74 2 
134 79 104 1 
135 80 75 1 
136 81 76 1 
137 82 85 1 
138 83 78 2 
139 84 86 2 
140 84 97 1 
141 85 81 2 
142 86 88 1 
143 86 83 1 
144 87 85 1 
145 89 87 1 
146 89 96 1 
147 90 88 1 
148 91 90 1 
149 92 90 1 
150 93 90 1 
151 94 89 1 
152 95 89 1 
153 98 83 1 
154 99 82 1 
155 100 81 1 
156 101 80 1 
157 102 80 1 
158 103 80 1 
159 105 78 1 
160 106 77 1 
161 107 76 1 
162 108 72 1 
163 109 72 1 
164 110 70 1 
165 111 70 1 
166 121 51 1 
167 122 51 1 
168 156 3 1 
169 157 3 1 
170 158 2 1 
171 159 2 1 
@<TRIPOS>SUBSTRUCTURE
1 NIL_1 1 RESIDUE 1 A NIL 1
