@<TRIPOS>MOLECULE
NIL
162 171 1 0 0
POLYMER
CHARGES


@<TRIPOS>ATOM
1 CQ 92.9063 59.5651 -24.4891 C.3 1 NIL_1    0.000
2 C_1816 91.810 58.684 -23.864 C.3 1 NIL_1    0.000
3 C_1818 94.197 59.305 -23.691 C.3 1 NIL_1    0.000
4 C_1854 92.516 61.023 -24.489 C.2 1 NIL_1    0.000
5 NH 93.043 59.362 -25.924 N.am 1 NIL_1    0.000
6 N 92.405 57.918 -22.763 N.am 1 NIL_1    0.000
7 CP 93.856 58.165 -22.712 C.3 1 NIL_1    0.000
8 N 92.421 61.436 -25.774 N.am 1 NIL_1    0.000
9 O 92.313 61.711 -23.505 O.2 1 NIL_1    0.000
10 C_1856 92.734 60.451 -26.648 C.2 1 NIL_1    0.000
11 C_1841 91.772 56.994 -21.986 C.2 1 NIL_1    0.000
12 C_1838 94.632 56.893 -23.042 C.2 1 NIL_1    0.000
13 C_1868 91.989 62.786 -26.170 C.3 1 NIL_1    0.000
14 O 92.742 60.519 -27.861 O.2 1 NIL_1    0.000
15 O 92.405 56.324 -21.192 O.2 1 NIL_1    0.000
16 C_1840 90.255 56.866 -22.124 C.3 1 NIL_1    0.000
17 O 94.234 56.160 -23.930 O.2 1 NIL_1    0.000
18 N 95.733 56.575 -22.302 N.am 1 NIL_1    0.000
19 C_1869 90.615 63.127 -25.623 C.2 1 NIL_1    0.000
20 N 89.673 55.535 -21.799 N.am 1 NIL_1    0.000
21 C_1829 96.119 55.153 -22.190 C.3 1 NIL_1    0.000
22 C_1871 96.331 57.466 -21.277 C.3 1 NIL_1    0.000
23 C_2204 90.445 64.195 -24.841 C.2 1 NIL_1    0.000
24 C_2212 89.557 62.359 -25.901 C.2 1 NIL_1    0.000
25 C_1843 89.781 54.968 -20.555 C.2 1 NIL_1    0.000
26 C_1872 88.775 55.067 -22.884 C.3 1 NIL_1    0.000
27 C_1830 96.651 54.540 -23.480 C.2 1 NIL_1    0.000
28 C_1876 97.848 57.321 -21.032 C.3 1 NIL_1    0.000
29 C_2206 89.243 64.495 -24.346 C.2 1 NIL_1    0.000
30 C_2210 88.354 62.656 -25.407 C.2 1 NIL_1    0.000
31 AP 89.435 53.497 -20.283 C.3 1 NIL_1    0.000
32 O 90.187 55.630 -19.618 O.2 1 NIL_1    0.000
33 C_1879 87.382 55.741 -22.865 C.3 1 NIL_1    0.000
34 O 97.257 55.211 -24.294 O.2 1 NIL_1    0.000
35 N 96.474 53.204 -23.667 N.am 1 NIL_1    0.000
36 O 98.274 58.439 -20.224 O.3 1 NIL_1    0.000
37 C_2208 88.180 63.726 -24.626 C.2 1 NIL_1    0.000
38 C_1827 87.960 53.371 -19.860 C.3 1 NIL_1    0.000
39 N 89.709 52.476 -21.321 N.am 1 NIL_1    0.000
40 O 87.471 57.114 -23.307 O.3 1 NIL_1    0.000
41 C_1813 97.189 52.417 -24.681 C.3 1 NIL_1    0.000
42 BP 95.664 52.282 -22.834 C.3 1 NIL_1    0.000
43 C_1878 99.680 58.465 -19.897 C.3 1 NIL_1    0.000
44 O 86.911 63.969 -24.162 O.3 1 NIL_1    0.000
45 AQ 87.498 52.016 -20.416 C.3 1 NIL_1    0.000
46 C_1825 88.510 51.646 -21.515 C.3 1 NIL_1    0.000
47 C_1844 90.895 52.206 -21.933 C.2 1 NIL_1    0.000
48 C_1881 86.242 57.867 -23.214 C.3 1 NIL_1    0.000
49 BQ 97.312 51.024 -24.055 C.3 1 NIL_1    0.000
50 C_1833 94.167 52.607 -22.866 C.2 1 NIL_1    0.000
51 C_1815 95.956 50.854 -23.352 C.3 1 NIL_1    0.000
52 C_2271 86.675 65.081 -23.264 C.3 1 NIL_1    0.000
53 C_1846 86.073 52.063 -20.909 C.2 1 NIL_1    0.000
54 NH 87.362 50.988 -19.395 N.am 1 NIL_1    0.000
55 O 90.985 51.319 -22.760 O.2 1 NIL_1    0.000
56 C_1835 92.109 53.037 -21.548 C.3 1 NIL_1    0.000
57 C_1850 97.708 49.934 -25.022 C.2 1 NIL_1    0.000
58 NH 98.450 50.966 -23.153 N.am 1 NIL_1    0.000
59 O 93.666 53.101 -23.860 O.2 1 NIL_1    0.000
60 N 93.410 52.358 -21.756 N.am 1 NIL_1    0.000
61 N 85.347 51.162 -20.198 N.am 1 NIL_1    0.000
62 O 85.657 52.805 -21.778 O.2 1 NIL_1    0.000
63 C_1848 86.109 50.517 -19.282 C.2 1 NIL_1    0.000
64 N 98.924 49.459 -24.649 N.am 1 NIL_1    0.000
65 O 97.058 49.549 -25.974 O.2 1 NIL_1    0.000
66 C_1852 99.397 50.103 -23.550 C.2 1 NIL_1    0.000
67 C_1870 93.897 51.651 -20.546 C.3 1 NIL_1    0.000
68 C_1866 83.889 50.950 -20.318 C.3 1 NIL_1    0.000
69 O 85.741 49.676 -18.486 O.2 1 NIL_1    0.000
70 C_1864 99.656 48.409 -25.391 C.3 1 NIL_1    0.000
71 O 100.473 49.956 -23.005 O.2 1 NIL_1    0.000
72 C_1873 92.843 50.762 -19.851 C.3 1 NIL_1    0.000
73 C_1867 83.298 51.191 -21.694 C.2 1 NIL_1    0.000
74 C_1865 100.570 47.522 -24.563 C.2 1 NIL_1    0.000
75 O 93.503 49.964 -18.845 O.3 1 NIL_1    0.000
76 C_2172 82.477 52.222 -21.907 C.2 1 NIL_1    0.000
77 C_2180 83.620 50.400 -22.720 C.2 1 NIL_1    0.000
78 C_2196 100.059 46.689 -23.650 C.2 1 NIL_1    0.000
79 C_2188 101.899 47.571 -24.713 C.2 1 NIL_1    0.000
80 C_1875 92.630 49.067 -18.129 C.3 1 NIL_1    0.000
81 C_2174 81.991 52.465 -23.125 C.2 1 NIL_1    0.000
82 C_2178 83.136 50.640 -23.939 C.2 1 NIL_1    0.000
83 C_2194 100.856 45.928 -22.901 C.2 1 NIL_1    0.000
84 C_2190 102.699 46.813 -23.963 C.2 1 NIL_1    0.000
85 C_2176 82.320 51.674 -24.159 C.2 1 NIL_1    0.000
86 C_2192 102.183 45.991 -23.045 C.2 1 NIL_1    0.000
87 O 81.871 51.863 -25.444 O.3 1 NIL_1    0.000
88 O 103.013 45.226 -22.278 O.3 1 NIL_1    0.000
89 C_2273 80.964 52.954 -25.733 C.3 1 NIL_1    0.000
90 C_2269 103.004 45.545 -20.866 C.3 1 NIL_1    0.000
91 H_22691 101.990 45.458 -20.466 H 1 NIL_1    0.000
92 H_22692 103.370 46.564 -20.722 H 1 NIL_1    0.000
93 H_22693 103.661 44.846 -20.344 H 1 NIL_1    0.000
94 H_22731 81.447 53.906 -25.498 H 1 NIL_1    0.000
95 H_22732 80.052 52.835 -25.143 H 1 NIL_1    0.000
96 H_22733 80.713 52.929 -26.796 H 1 NIL_1    0.000
97 H_2190 103.778 46.873 -24.092 H 1 NIL_1    0.000
98 H_2194 100.417 45.253 -22.166 H 1 NIL_1    0.000
99 H_2178 83.420 49.988 -24.762 H 1 NIL_1    0.000
100 H_2174 81.334 53.321 -23.250 H 1 NIL_1    0.000
101 H_18751 93.223 48.489 -17.419 H 1 NIL_1    0.000
102 H_18752 92.144 48.391 -18.838 H 1 NIL_1    0.000
103 H_18753 91.874 49.645 -17.592 H 1 NIL_1    0.000
104 H_2188 102.342 48.238 -25.447 H 1 NIL_1    0.000
105 H_2196 98.982 46.635 -23.505 H 1 NIL_1    0.000
106 H_2180 84.295 49.560 -22.570 H 1 NIL_1    0.000
107 H_2172 82.207 52.881 -21.085 H 1 NIL_1    0.000
108 H_18731 92.073 51.372 -19.370 H 1 NIL_1    0.000
109 H_18732 92.380 50.088 -20.580 H 1 NIL_1    0.000
110 H_18641 100.232 48.902 -26.178 H 1 NIL_1    0.000
111 H_18642 98.926 47.767 -25.888 H 1 NIL_1    0.000
112 H_18661 83.402 51.606 -19.589 H 1 NIL_1    0.000
113 H_18662 83.663 49.921 -20.025 H 1 NIL_1    0.000
114 H_18701 94.261 52.401 -19.838 H 1 NIL_1    0.000
115 H_18702 94.729 51.001 -20.814 H 1 NIL_1    0.000
116 H_18351 92.060 53.950 -22.148 H 1 NIL_1    0.000
117 H_18352 92.026 53.325 -20.497 H 1 NIL_1    0.000
118 H_22711 85.610 65.117 -23.022 H 1 NIL_1    0.000
119 H_22712 86.966 66.016 -23.751 H 1 NIL_1    0.000
120 H_22713 87.252 64.938 -22.346 H 1 NIL_1    0.000
121 H_18151 95.984 50.110 -22.553 H 1 NIL_1    0.000
122 H_18152 95.197 50.560 -24.082 H 1 NIL_1    0.000
123 H_18811 85.454 57.355 -23.775 H 1 NIL_1    0.000
124 H_18812 86.399 58.864 -23.632 H 1 NIL_1    0.000
125 H_18813 85.949 57.955 -22.164 H 1 NIL_1    0.000
126 H_18251 88.768 50.583 -21.454 H 1 NIL_1    0.000
127 H_18252 88.096 51.857 -22.506 H 1 NIL_1    0.000
128 H_18781 99.887 59.355 -19.295 H 1 NIL_1    0.000
129 H_18782 100.267 58.502 -20.819 H 1 NIL_1    0.000
130 H_18783 99.939 57.570 -19.325 H 1 NIL_1    0.000
131 HP 96.032 52.380 -21.809 H 1 NIL_1    0.000
132 H_18131 98.173 52.844 -24.897 H 1 NIL_1    0.000
133 H_18132 96.585 52.378 -25.590 H 1 NIL_1    0.000
134 H_18271 87.849 53.431 -18.774 H 1 NIL_1    0.000
135 H_18272 87.370 54.178 -20.297 H 1 NIL_1    0.000
136 H_18791 86.711 55.206 -23.544 H 1 NIL_1    0.000
137 H_18792 86.965 55.719 -21.855 H 1 NIL_1    0.000
138 HP 90.039 53.208 -19.419 H 1 NIL_1    0.000
139 H_2210 87.509 62.015 -25.646 H 1 NIL_1    0.000
140 H_2206 89.158 65.375 -23.715 H 1 NIL_1    0.000
141 H_18761 98.078 56.397 -20.495 H 1 NIL_1    0.000
142 H_18762 98.388 57.343 -21.983 H 1 NIL_1    0.000
143 H_18721 88.612 53.999 -22.823 H 1 NIL_1    0.000
144 H_18722 89.254 55.248 -23.850 H 1 NIL_1    0.000
145 H_2212 89.670 61.480 -26.531 H 1 NIL_1    0.000
146 H_2204 91.293 64.831 -24.598 H 1 NIL_1    0.000
147 H_18711 95.801 57.308 -20.334 H 1 NIL_1    0.000
148 H_18712 96.175 58.503 -21.585 H 1 NIL_1    0.000
149 H_18291 95.226 54.616 -21.870 H 1 NIL_1    0.000
150 H_18292 96.881 54.989 -21.428 H 1 NIL_1    0.000
151 H_18401 89.807 57.621 -21.471 H 1 NIL_1    0.000
152 H_18402 89.996 57.124 -23.152 H 1 NIL_1    0.000
153 H_18681 91.972 62.862 -27.261 H 1 NIL_1    0.000
154 H_18682 92.731 63.498 -25.798 H 1 NIL_1    0.000
155 HP 94.084 58.484 -21.694 H 1 NIL_1    0.000
156 H_18181 94.489 60.192 -23.124 H 1 NIL_1    0.000
157 H_18182 95.032 59.043 -24.347 H 1 NIL_1    0.000
158 H_18161 90.983 59.292 -23.485 H 1 NIL_1    0.000
159 H_18162 91.428 57.980 -24.610 H 1 NIL_1    0.000
160 HH 98.553 51.597 -22.372 H 1 NIL_1    0.000
161 HH 88.130 50.696 -18.810 H 1 NIL_1    0.000
162 HH 93.302 58.473 -26.326 H 1 NIL_1    0.000
@<TRIPOS>BOND
1 1 2 1 
2 3 1 1 
3 4 1 1 
4 5 10 1 
5 5 1 1 
6 5 162 1 
7 6 2 1 
8 7 3 1 
9 7 6 1 
10 7 155 1 
11 8 4 1 
12 9 4 2 
13 10 8 1 
14 11 6 1 
15 12 7 1 
16 13 8 1 
17 13 153 1 
18 13 154 1 
19 14 10 2 
20 15 11 2 
21 16 20 1 
22 16 11 1 
23 16 151 1 
24 16 152 1 
25 17 12 2 
26 18 12 1 
27 19 13 1 
28 20 25 1 
29 21 18 1 
30 21 27 1 
31 21 149 1 
32 21 150 1 
33 22 18 1 
34 22 28 1 
35 22 147 1 
36 22 148 1 
37 23 19 2 
38 23 146 1 
39 24 30 2 
40 24 19 1 
41 24 145 1 
42 25 31 1 
43 26 20 1 
44 26 33 1 
45 26 143 1 
46 26 144 1 
47 27 35 1 
48 28 141 1 
49 28 142 1 
50 29 23 1 
51 29 140 1 
52 30 37 1 
53 30 139 1 
54 31 138 1 
55 32 25 2 
56 33 136 1 
57 33 137 1 
58 34 27 2 
59 36 28 1 
60 37 29 2 
61 38 45 1 
62 38 31 1 
63 38 134 1 
64 38 135 1 
65 39 46 1 
66 39 31 1 
67 39 47 1 
68 40 33 1 
69 41 35 1 
70 41 49 1 
71 41 132 1 
72 41 133 1 
73 42 51 1 
74 42 35 1 
75 42 131 1 
76 43 36 1 
77 43 128 1 
78 43 129 1 
79 43 130 1 
80 44 37 1 
81 45 46 1 
82 46 126 1 
83 46 127 1 
84 48 40 1 
85 48 123 1 
86 48 124 1 
87 48 125 1 
88 50 42 1 
89 50 59 2 
90 51 49 1 
91 52 44 1 
92 52 118 1 
93 52 119 1 
94 52 120 1 
95 53 45 1 
96 54 63 1 
97 54 45 1 
98 54 161 1 
99 55 47 2 
100 56 60 1 
101 56 47 1 
102 56 116 1 
103 56 117 1 
104 57 49 1 
105 58 66 1 
106 58 49 1 
107 58 160 1 
108 60 50 1 
109 61 53 1 
110 62 53 2 
111 63 61 1 
112 64 57 1 
113 65 57 2 
114 66 64 1 
115 67 60 1 
116 67 72 1 
117 67 114 1 
118 67 115 1 
119 68 61 1 
120 68 112 1 
121 68 113 1 
122 69 63 2 
123 70 64 1 
124 70 74 1 
125 71 66 2 
126 73 68 1 
127 73 76 2 
128 73 77 1 
129 74 78 1 
130 75 72 1 
131 77 82 2 
132 79 84 1 
133 79 74 2 
134 79 104 1 
135 80 75 1 
136 81 76 1 
137 82 85 1 
138 83 78 2 
139 84 86 2 
140 84 97 1 
141 85 81 2 
142 86 88 1 
143 86 83 1 
144 87 85 1 
145 89 87 1 
146 89 96 1 
147 90 88 1 
148 91 90 1 
149 92 90 1 
150 93 90 1 
151 94 89 1 
152 95 89 1 
153 98 83 1 
154 99 82 1 
155 100 81 1 
156 101 80 1 
157 102 80 1 
158 103 80 1 
159 105 78 1 
160 106 77 1 
161 107 76 1 
162 108 72 1 
163 109 72 1 
164 110 70 1 
165 111 70 1 
166 121 51 1 
167 122 51 1 
168 156 3 1 
169 157 3 1 
170 158 2 1 
171 159 2 1 
@<TRIPOS>SUBSTRUCTURE
1 NIL_1 1 RESIDUE 1 A NIL 1
