@<TRIPOS>MOLECULE
NIL
162 171 1 0 0
POLYMER
CHARGES


@<TRIPOS>ATOM
1 CQ 108.765 78.0909 -6.46791 C.3 1 NIL_1    0.000
2 C_1816 107.874 76.994 -5.863 C.3 1 NIL_1    0.000
3 C_1818 110.161 77.786 -5.925 C.3 1 NIL_1    0.000
4 C_1854 108.322 79.486 -6.084 C.2 1 NIL_1    0.000
5 NH 108.699 78.211 -7.916 N.am 1 NIL_1    0.000
6 N 108.531 76.534 -4.627 N.am 1 NIL_1    0.000
7 CP 109.893 77.112 -4.566 C.3 1 NIL_1    0.000
8 N 108.122 80.189 -7.224 N.am 1 NIL_1    0.000
9 O 108.190 79.918 -4.955 O.2 1 NIL_1    0.000
10 C_1856 108.345 79.439 -8.330 C.2 1 NIL_1    0.000
11 C_1841 107.902 75.797 -3.665 C.2 1 NIL_1    0.000
12 C_1838 110.995 76.106 -4.266 C.2 1 NIL_1    0.000
13 C_1868 107.753 81.616 -7.255 C.3 1 NIL_1    0.000
14 O 108.256 79.795 -9.488 O.2 1 NIL_1    0.000
15 O 106.744 75.459 -3.813 O.2 1 NIL_1    0.000
16 C_1840 108.685 75.441 -2.401 C.3 1 NIL_1    0.000
17 O 110.926 74.981 -4.723 O.2 1 NIL_1    0.000
18 N 112.029 76.483 -3.462 N.am 1 NIL_1    0.000
19 C_1869 108.780 82.551 -6.637 C.2 1 NIL_1    0.000
20 N 107.928 74.747 -1.330 N.am 1 NIL_1    0.000
21 C_1829 112.739 75.503 -2.609 C.3 1 NIL_1    0.000
22 C_1871 112.414 77.879 -3.147 C.3 1 NIL_1    0.000
23 C_2204 110.093 82.355 -6.802 C.2 1 NIL_1    0.000
24 C_2212 108.378 83.597 -5.910 C.2 1 NIL_1    0.000
25 C_1843 107.498 73.443 -1.299 C.2 1 NIL_1    0.000
26 C_1872 107.652 75.669 -0.202 C.3 1 NIL_1    0.000
27 C_1830 113.605 74.455 -3.301 C.2 1 NIL_1    0.000
28 C_1876 113.766 78.306 -3.756 C.3 1 NIL_1    0.000
29 C_2206 110.978 83.178 -6.241 C.2 1 NIL_1    0.000
30 C_2210 109.262 84.425 -5.351 C.2 1 NIL_1    0.000
31 AP 107.833 72.392 -2.368 C.3 1 NIL_1    0.000
32 O 106.821 73.059 -0.364 O.2 1 NIL_1    0.000
33 C_1879 108.778 75.691 0.858 C.3 1 NIL_1    0.000
34 O 113.748 74.433 -4.509 O.2 1 NIL_1    0.000
35 N 114.239 73.547 -2.502 N.am 1 NIL_1    0.000
36 O 113.622 78.615 -5.164 O.3 1 NIL_1    0.000
37 C_2208 110.578 84.221 -5.510 C.2 1 NIL_1    0.000
38 C_1827 106.632 72.177 -3.317 C.3 1 NIL_1    0.000
39 N 109.044 72.503 -3.209 N.am 1 NIL_1    0.000
40 O 108.834 74.442 1.590 O.3 1 NIL_1    0.000
41 C_1813 115.126 72.497 -3.012 C.3 1 NIL_1    0.000
42 BP 114.215 73.493 -1.023 C.3 1 NIL_1    0.000
43 C_1878 113.744 77.517 -6.095 C.3 1 NIL_1    0.000
44 O 111.555 85.017 -4.966 O.3 1 NIL_1    0.000
45 AQ 107.286 71.695 -4.616 C.3 1 NIL_1    0.000
46 C_1825 108.646 72.396 -4.619 C.3 1 NIL_1    0.000
47 C_1844 110.338 72.432 -2.799 C.2 1 NIL_1    0.000
48 C_1881 107.847 74.271 2.636 C.3 1 NIL_1    0.000
49 BQ 116.000 72.007 -1.842 C.3 1 NIL_1    0.000
50 C_1833 112.834 73.200 -0.420 C.2 1 NIL_1    0.000
51 C_1815 115.331 72.530 -0.551 C.3 1 NIL_1    0.000
52 C_2271 111.188 86.182 -4.188 C.3 1 NIL_1    0.000
53 C_1846 106.494 71.945 -5.873 C.2 1 NIL_1    0.000
54 NH 107.405 70.247 -4.687 N.am 1 NIL_1    0.000
55 O 111.235 72.337 -3.615 O.2 1 NIL_1    0.000
56 C_1835 110.626 72.496 -1.302 C.3 1 NIL_1    0.000
57 C_1850 116.219 70.511 -1.898 C.2 1 NIL_1    0.000
58 NH 117.384 72.443 -1.972 N.am 1 NIL_1    0.000
59 O 112.382 73.930 0.442 O.2 1 NIL_1    0.000
60 N 112.050 72.240 -0.987 N.am 1 NIL_1    0.000
61 N 106.309 70.755 -6.492 N.am 1 NIL_1    0.000
62 O 106.101 73.024 -6.275 O.2 1 NIL_1    0.000
63 C_1848 106.833 69.726 -5.785 C.2 1 NIL_1    0.000
64 N 117.536 70.281 -2.108 N.am 1 NIL_1    0.000
65 O 115.363 69.650 -1.822 O.2 1 NIL_1    0.000
66 C_1852 118.249 71.430 -2.145 C.2 1 NIL_1    0.000
67 C_1870 112.518 70.864 -1.275 C.3 1 NIL_1    0.000
68 C_1866 105.640 70.603 -7.795 C.3 1 NIL_1    0.000
69 O 106.801 68.546 -6.074 O.2 1 NIL_1    0.000
70 C_1864 118.088 68.964 -2.467 C.3 1 NIL_1    0.000
71 O 119.445 71.544 -2.324 O.2 1 NIL_1    0.000
72 C_1873 111.533 69.734 -0.915 C.3 1 NIL_1    0.000
73 C_1867 104.132 70.643 -7.663 C.2 1 NIL_1    0.000
74 C_1865 117.785 68.738 -3.937 C.2 1 NIL_1    0.000
75 O 112.284 68.524 -0.675 O.3 1 NIL_1    0.000
76 C_2172 103.470 69.615 -7.128 C.2 1 NIL_1    0.000
77 C_2180 103.439 71.708 -8.078 C.2 1 NIL_1    0.000
78 C_2196 116.744 67.985 -4.307 C.2 1 NIL_1    0.000
79 C_2188 118.515 69.331 -4.885 C.2 1 NIL_1    0.000
80 C_1875 111.485 67.370 -0.336 C.3 1 NIL_1    0.000
81 C_2174 102.143 69.650 -7.009 C.2 1 NIL_1    0.000
82 C_2178 102.110 71.745 -7.962 C.2 1 NIL_1    0.000
83 C_2194 116.429 67.841 -5.594 C.2 1 NIL_1    0.000
84 C_2190 118.200 69.190 -6.173 C.2 1 NIL_1    0.000
85 C_2176 101.446 70.710 -7.426 C.2 1 NIL_1    0.000
86 C_2192 117.153 68.448 -6.544 C.2 1 NIL_1    0.000
87 O 100.083 70.666 -7.270 O.3 1 NIL_1    0.000
88 O 116.866 68.383 -7.884 O.3 1 NIL_1    0.000
89 C_2273 99.258 71.714 -7.833 C.3 1 NIL_1    0.000
90 C_2269 116.122 67.253 -8.398 C.3 1 NIL_1    0.000
91 H_22691 115.121 67.228 -7.961 H 1 NIL_1    0.000
92 H_22692 116.660 66.330 -8.170 H 1 NIL_1    0.000
93 H_22693 116.033 67.364 -9.482 H 1 NIL_1    0.000
94 H_22731 98.210 71.472 -7.638 H 1 NIL_1    0.000
95 H_22732 99.423 71.771 -8.913 H 1 NIL_1    0.000
96 H_22733 99.503 72.669 -7.360 H 1 NIL_1    0.000
97 H_2190 118.799 69.697 -6.926 H 1 NIL_1    0.000
98 H_2194 115.561 67.237 -5.845 H 1 NIL_1    0.000
99 H_2178 101.590 72.633 -8.313 H 1 NIL_1    0.000
100 H_2174 101.626 68.800 -6.569 H 1 NIL_1    0.000
101 H_18751 110.839 67.609 0.514 H 1 NIL_1    0.000
102 H_18752 112.148 66.544 -0.068 H 1 NIL_1    0.000
103 H_18753 110.877 67.087 -1.199 H 1 NIL_1    0.000
104 H_2188 119.365 69.953 -4.612 H 1 NIL_1    0.000
105 H_2196 116.132 67.498 -3.551 H 1 NIL_1    0.000
106 H_2180 103.958 72.557 -8.517 H 1 NIL_1    0.000
107 H_2172 104.012 68.737 -6.783 H 1 NIL_1    0.000
108 H_18731 110.991 69.982 0.002 H 1 NIL_1    0.000
109 H_18732 110.823 69.570 -1.731 H 1 NIL_1    0.000
110 H_18641 117.622 68.191 -1.849 H 1 NIL_1    0.000
111 H_18642 119.168 68.948 -2.286 H 1 NIL_1    0.000
112 H_18661 105.944 69.655 -8.249 H 1 NIL_1    0.000
113 H_18662 105.983 71.403 -8.457 H 1 NIL_1    0.000
114 H_18701 113.404 70.677 -0.678 H 1 NIL_1    0.000
115 H_18702 112.792 70.783 -2.329 H 1 NIL_1    0.000
116 H_18351 110.352 73.501 -0.974 H 1 NIL_1    0.000
117 H_18352 109.981 71.783 -0.784 H 1 NIL_1    0.000
118 H_22711 110.605 85.874 -3.315 H 1 NIL_1    0.000
119 H_22712 110.608 86.868 -4.811 H 1 NIL_1    0.000
120 H_22713 112.102 86.680 -3.855 H 1 NIL_1    0.000
121 H_18151 116.053 73.077 0.059 H 1 NIL_1    0.000
122 H_18152 114.955 71.726 0.080 H 1 NIL_1    0.000
123 H_18811 108.012 73.307 3.124 H 1 NIL_1    0.000
124 H_18812 106.840 74.294 2.210 H 1 NIL_1    0.000
125 H_18813 107.953 75.075 3.371 H 1 NIL_1    0.000
126 H_18251 109.374 71.831 -5.208 H 1 NIL_1    0.000
127 H_18252 108.554 73.404 -5.033 H 1 NIL_1    0.000
128 H_18781 112.938 76.799 -5.939 H 1 NIL_1    0.000
129 H_18782 114.709 77.028 -5.950 H 1 NIL_1    0.000
130 H_18783 113.681 77.914 -7.111 H 1 NIL_1    0.000
131 HP 114.487 74.490 -0.664 H 1 NIL_1    0.000
132 H_18131 115.747 72.885 -3.824 H 1 NIL_1    0.000
133 H_18132 114.507 71.682 -3.398 H 1 NIL_1    0.000
134 H_18271 105.922 71.449 -2.920 H 1 NIL_1    0.000
135 H_18272 106.097 73.110 -3.492 H 1 NIL_1    0.000
136 H_18791 109.742 75.843 0.366 H 1 NIL_1    0.000
137 H_18792 108.616 76.509 1.564 H 1 NIL_1    0.000
138 HP 107.957 71.459 -1.810 H 1 NIL_1    0.000
139 H_2210 108.885 85.261 -4.767 H 1 NIL_1    0.000
140 H_2206 112.041 82.992 -6.384 H 1 NIL_1    0.000
141 H_18761 114.093 79.223 -3.258 H 1 NIL_1    0.000
142 H_18762 114.528 77.536 -3.612 H 1 NIL_1    0.000
143 H_18721 106.705 75.403 0.273 H 1 NIL_1    0.000
144 H_18722 107.530 76.684 -0.590 H 1 NIL_1    0.000
145 H_2212 107.315 83.782 -5.768 H 1 NIL_1    0.000
146 H_2204 110.457 81.518 -7.394 H 1 NIL_1    0.000
147 H_18711 112.466 77.987 -2.061 H 1 NIL_1    0.000
148 H_18712 111.671 78.594 -3.497 H 1 NIL_1    0.000
149 H_18291 111.976 74.971 -2.041 H 1 NIL_1    0.000
150 H_18292 113.389 76.021 -1.899 H 1 NIL_1    0.000
151 H_18401 109.538 74.836 -2.676 H 1 NIL_1    0.000
152 H_18402 109.090 76.383 -2.019 H 1 NIL_1    0.000
153 H_18681 106.800 81.720 -6.728 H 1 NIL_1    0.000
154 H_18682 107.585 81.923 -8.291 H 1 NIL_1    0.000
155 HP 109.856 77.863 -3.776 H 1 NIL_1    0.000
156 H_18181 110.781 78.682 -5.831 H 1 NIL_1    0.000
157 H_18182 110.660 77.081 -6.598 H 1 NIL_1    0.000
158 H_18161 106.868 77.377 -5.659 H 1 NIL_1    0.000
159 H_18162 107.808 76.149 -6.553 H 1 NIL_1    0.000
160 HH 117.647 73.415 -2.001 H 1 NIL_1    0.000
161 HH 107.869 69.702 -3.976 H 1 NIL_1    0.000
162 HH 108.944 77.454 -8.535 H 1 NIL_1    0.000
@<TRIPOS>BOND
1 1 2 1 
2 3 1 1 
3 4 1 1 
4 5 10 1 
5 5 1 1 
6 5 162 1 
7 6 2 1 
8 7 3 1 
9 7 6 1 
10 7 155 1 
11 8 4 1 
12 9 4 2 
13 10 8 1 
14 11 6 1 
15 12 7 1 
16 13 8 1 
17 13 153 1 
18 13 154 1 
19 14 10 2 
20 15 11 2 
21 16 20 1 
22 16 11 1 
23 16 151 1 
24 16 152 1 
25 17 12 2 
26 18 12 1 
27 19 13 1 
28 20 25 1 
29 21 18 1 
30 21 27 1 
31 21 149 1 
32 21 150 1 
33 22 18 1 
34 22 28 1 
35 22 147 1 
36 22 148 1 
37 23 19 2 
38 23 146 1 
39 24 30 2 
40 24 19 1 
41 24 145 1 
42 25 31 1 
43 26 20 1 
44 26 33 1 
45 26 143 1 
46 26 144 1 
47 27 35 1 
48 28 141 1 
49 28 142 1 
50 29 23 1 
51 29 140 1 
52 30 37 1 
53 30 139 1 
54 31 138 1 
55 32 25 2 
56 33 136 1 
57 33 137 1 
58 34 27 2 
59 36 28 1 
60 37 29 2 
61 38 45 1 
62 38 31 1 
63 38 134 1 
64 38 135 1 
65 39 46 1 
66 39 31 1 
67 39 47 1 
68 40 33 1 
69 41 35 1 
70 41 49 1 
71 41 132 1 
72 41 133 1 
73 42 51 1 
74 42 35 1 
75 42 131 1 
76 43 36 1 
77 43 128 1 
78 43 129 1 
79 43 130 1 
80 44 37 1 
81 45 46 1 
82 46 126 1 
83 46 127 1 
84 48 40 1 
85 48 123 1 
86 48 124 1 
87 48 125 1 
88 50 42 1 
89 50 59 2 
90 51 49 1 
91 52 44 1 
92 52 118 1 
93 52 119 1 
94 52 120 1 
95 53 45 1 
96 54 63 1 
97 54 45 1 
98 54 161 1 
99 55 47 2 
100 56 60 1 
101 56 47 1 
102 56 116 1 
103 56 117 1 
104 57 49 1 
105 58 66 1 
106 58 49 1 
107 58 160 1 
108 60 50 1 
109 61 53 1 
110 62 53 2 
111 63 61 1 
112 64 57 1 
113 65 57 2 
114 66 64 1 
115 67 60 1 
116 67 72 1 
117 67 114 1 
118 67 115 1 
119 68 61 1 
120 68 112 1 
121 68 113 1 
122 69 63 2 
123 70 64 1 
124 70 74 1 
125 71 66 2 
126 73 68 1 
127 73 76 2 
128 73 77 1 
129 74 78 1 
130 75 72 1 
131 77 82 2 
132 79 84 1 
133 79 74 2 
134 79 104 1 
135 80 75 1 
136 81 76 1 
137 82 85 1 
138 83 78 2 
139 84 86 2 
140 84 97 1 
141 85 81 2 
142 86 88 1 
143 86 83 1 
144 87 85 1 
145 89 87 1 
146 89 96 1 
147 90 88 1 
148 91 90 1 
149 92 90 1 
150 93 90 1 
151 94 89 1 
152 95 89 1 
153 98 83 1 
154 99 82 1 
155 100 81 1 
156 101 80 1 
157 102 80 1 
158 103 80 1 
159 105 78 1 
160 106 77 1 
161 107 76 1 
162 108 72 1 
163 109 72 1 
164 110 70 1 
165 111 70 1 
166 121 51 1 
167 122 51 1 
168 156 3 1 
169 157 3 1 
170 158 2 1 
171 159 2 1 
@<TRIPOS>SUBSTRUCTURE
1 NIL_1 1 RESIDUE 1 A NIL 1
