@<TRIPOS>MOLECULE
NIL
162 171 1 0 0
POLYMER
CHARGES


@<TRIPOS>ATOM
1 CQ 103.181 73.027 -10.4263 C.3 1 NIL_1    0.000
2 C_1816 103.225 71.707 -9.636 C.3 1 NIL_1    0.000
3 C_1818 104.320 72.918 -11.453 C.3 1 NIL_1    0.000
4 C_1854 103.328 74.206 -9.494 C.2 1 NIL_1    0.000
5 NH 101.867 73.323 -10.976 N.am 1 NIL_1    0.000
6 N 104.252 70.847 -10.245 N.am 1 NIL_1    0.000
7 CP 105.203 71.792 -10.875 C.3 1 NIL_1    0.000
8 N 102.178 74.920 -9.534 N.am 1 NIL_1    0.000
9 O 104.299 74.456 -8.805 O.2 1 NIL_1    0.000
10 C_1856 101.286 74.394 -10.409 C.2 1 NIL_1    0.000
11 C_1841 103.883 69.684 -10.842 C.2 1 NIL_1    0.000
12 C_1838 106.215 71.208 -11.875 C.2 1 NIL_1    0.000
13 C_1868 101.892 76.052 -8.638 C.3 1 NIL_1    0.000
14 O 100.162 74.794 -10.637 O.2 1 NIL_1    0.000
15 O 103.855 69.606 -12.055 O.2 1 NIL_1    0.000
16 C_1840 103.512 68.423 -10.053 C.3 1 NIL_1    0.000
17 O 106.256 71.627 -13.017 O.2 1 NIL_1    0.000
18 N 107.030 70.174 -11.499 N.am 1 NIL_1    0.000
19 C_1869 101.482 77.336 -9.323 C.2 1 NIL_1    0.000
20 N 103.594 68.183 -8.573 N.am 1 NIL_1    0.000
21 C_1829 107.141 69.605 -10.128 C.3 1 NIL_1    0.000
22 C_1871 107.713 69.336 -12.517 C.3 1 NIL_1    0.000
23 C_2204 100.223 77.776 -9.249 C.2 1 NIL_1    0.000
24 C_2212 102.380 78.067 -9.988 C.2 1 NIL_1    0.000
25 C_1843 103.028 67.068 -7.998 C.2 1 NIL_1    0.000
26 C_1872 104.199 69.282 -7.779 C.3 1 NIL_1    0.000
27 C_1830 108.567 69.481 -9.608 C.2 1 NIL_1    0.000
28 C_1876 109.053 69.912 -13.030 C.3 1 NIL_1    0.000
29 C_2206 99.870 78.926 -9.822 C.2 1 NIL_1    0.000
30 C_2210 102.032 79.219 -10.561 C.2 1 NIL_1    0.000
31 AP 102.647 65.828 -8.819 C.3 1 NIL_1    0.000
32 O 102.765 67.029 -6.812 O.2 1 NIL_1    0.000
33 C_1879 104.566 69.091 -6.290 C.3 1 NIL_1    0.000
34 O 109.433 70.224 -10.026 O.2 1 NIL_1    0.000
35 N 108.868 68.597 -8.613 N.am 1 NIL_1    0.000
36 O 108.888 70.498 -14.339 O.3 1 NIL_1    0.000
37 C_2208 100.768 79.666 -10.480 C.2 1 NIL_1    0.000
38 C_1827 101.181 65.983 -9.283 C.3 1 NIL_1    0.000
39 N 103.462 65.453 -10.001 N.am 1 NIL_1    0.000
40 O 105.515 70.112 -5.889 O.3 1 NIL_1    0.000
41 C_1813 110.213 68.583 -8.003 C.3 1 NIL_1    0.000
42 BP 107.983 67.655 -7.858 C.3 1 NIL_1    0.000
43 C_1878 110.120 70.981 -14.920 C.3 1 NIL_1    0.000
44 O 100.335 80.845 -11.032 O.3 1 NIL_1    0.000
45 AQ 101.139 65.323 -10.666 C.3 1 NIL_1    0.000
46 C_1825 102.586 65.381 -11.178 C.3 1 NIL_1    0.000
47 C_1844 104.787 65.140 -10.066 C.2 1 NIL_1    0.000
48 C_1881 105.048 71.482 -5.889 C.3 1 NIL_1    0.000
49 BQ 110.031 68.018 -6.601 C.3 1 NIL_1    0.000
50 C_1833 107.271 66.561 -8.673 C.2 1 NIL_1    0.000
51 C_1815 108.909 67.012 -6.796 C.3 1 NIL_1    0.000
52 C_2271 101.300 81.763 -11.603 C.3 1 NIL_1    0.000
53 C_1846 100.160 65.946 -11.634 C.2 1 NIL_1    0.000
54 NH 100.594 63.976 -10.609 N.am 1 NIL_1    0.000
55 O 105.352 65.071 -11.140 O.2 1 NIL_1    0.000
56 C_1835 105.516 64.749 -8.791 C.3 1 NIL_1    0.000
57 C_1850 111.265 67.427 -5.975 C.2 1 NIL_1    0.000
58 NH 109.701 69.020 -5.604 N.am 1 NIL_1    0.000
59 O 107.599 66.358 -9.827 O.2 1 NIL_1    0.000
60 N 106.289 65.799 -8.083 N.am 1 NIL_1    0.000
61 N 99.263 64.995 -11.992 N.am 1 NIL_1    0.000
62 O 100.180 67.091 -12.043 O.2 1 NIL_1    0.000
63 C_1848 99.493 63.818 -11.363 C.2 1 NIL_1    0.000
64 N 111.441 68.017 -4.763 N.am 1 NIL_1    0.000
65 O 111.961 66.567 -6.480 O.2 1 NIL_1    0.000
66 C_1852 110.509 68.974 -4.533 C.2 1 NIL_1    0.000
67 C_1870 105.983 65.747 -6.633 C.3 1 NIL_1    0.000
68 C_1866 98.193 65.193 -12.984 C.3 1 NIL_1    0.000
69 O 98.839 62.798 -11.457 O.2 1 NIL_1    0.000
70 C_1864 112.482 67.685 -3.768 C.3 1 NIL_1    0.000
71 O 110.405 69.669 -3.542 O.2 1 NIL_1    0.000
72 C_1873 106.421 64.454 -5.898 C.3 1 NIL_1    0.000
73 C_1867 98.546 64.963 -14.450 C.2 1 NIL_1    0.000
74 C_1865 113.183 66.348 -3.915 C.2 1 NIL_1    0.000
75 O 107.855 64.264 -5.919 O.3 1 NIL_1    0.000
76 C_2172 99.662 64.331 -14.838 C.2 1 NIL_1    0.000
77 C_2180 97.704 65.393 -15.395 C.2 1 NIL_1    0.000
78 C_2196 114.330 66.254 -4.593 C.2 1 NIL_1    0.000
79 C_2188 112.653 65.241 -3.390 C.2 1 NIL_1    0.000
80 C_1875 108.365 63.350 -6.915 C.3 1 NIL_1    0.000
81 C_2174 99.922 64.139 -16.133 C.2 1 NIL_1    0.000
82 C_2178 97.957 65.196 -16.690 C.2 1 NIL_1    0.000
83 C_2194 114.927 65.072 -4.757 C.2 1 NIL_1    0.000
84 C_2190 113.248 64.058 -3.551 C.2 1 NIL_1    0.000
85 C_2176 99.075 64.562 -17.074 C.2 1 NIL_1    0.000
86 C_2192 114.390 63.961 -4.248 C.2 1 NIL_1    0.000
87 O 99.410 64.326 -18.386 O.3 1 NIL_1    0.000
88 O 115.047 62.776 -4.463 O.3 1 NIL_1    0.000
89 C_2273 98.396 64.440 -19.414 C.3 1 NIL_1    0.000
90 C_2269 114.287 61.542 -4.445 C.3 1 NIL_1    0.000
91 H_22691 113.906 61.355 -3.438 H 1 NIL_1    0.000
92 H_22692 114.947 60.721 -4.733 H 1 NIL_1    0.000
93 H_22693 113.459 61.611 -5.157 H 1 NIL_1    0.000
94 H_22731 98.074 65.480 -19.509 H 1 NIL_1    0.000
95 H_22732 97.544 63.803 -19.161 H 1 NIL_1    0.000
96 H_22733 98.827 64.109 -20.362 H 1 NIL_1    0.000
97 H_2190 112.783 63.183 -3.106 H 1 NIL_1    0.000
98 H_2194 115.854 65.019 -5.323 H 1 NIL_1    0.000
99 H_2178 97.241 65.567 -17.417 H 1 NIL_1    0.000
100 H_2174 100.836 63.624 -16.422 H 1 NIL_1    0.000
101 H_18751 108.118 63.716 -7.914 H 1 NIL_1    0.000
102 H_18752 107.920 62.364 -6.756 H 1 NIL_1    0.000
103 H_18753 109.451 63.283 -6.810 H 1 NIL_1    0.000
104 H_2188 111.721 65.295 -2.830 H 1 NIL_1    0.000
105 H_2196 114.774 67.143 -5.034 H 1 NIL_1    0.000
106 H_2180 96.793 65.913 -15.109 H 1 NIL_1    0.000
107 H_2172 100.376 63.962 -14.104 H 1 NIL_1    0.000
108 H_18731 106.116 64.538 -4.853 H 1 NIL_1    0.000
109 H_18732 105.933 63.575 -6.327 H 1 NIL_1    0.000
110 H_18641 112.009 67.707 -2.781 H 1 NIL_1    0.000
111 H_18642 113.226 68.486 -3.783 H 1 NIL_1    0.000
112 H_18661 97.812 66.212 -12.866 H 1 NIL_1    0.000
113 H_18662 97.367 64.523 -12.726 H 1 NIL_1    0.000
114 H_18701 104.901 65.817 -6.514 H 1 NIL_1    0.000
115 H_18702 106.395 66.608 -6.117 H 1 NIL_1    0.000
116 H_18351 104.771 64.308 -8.125 H 1 NIL_1    0.000
117 H_18352 106.204 63.945 -9.067 H 1 NIL_1    0.000
118 H_22711 100.769 82.643 -11.971 H 1 NIL_1    0.000
119 H_22712 101.817 81.278 -12.436 H 1 NIL_1    0.000
120 H_22713 102.019 82.065 -10.835 H 1 NIL_1    0.000
121 H_18151 108.418 66.807 -5.845 H 1 NIL_1    0.000
122 H_18152 109.329 66.083 -7.187 H 1 NIL_1    0.000
123 H_18811 104.781 71.788 -6.904 H 1 NIL_1    0.000
124 H_18812 105.855 72.124 -5.528 H 1 NIL_1    0.000
125 H_18813 104.179 71.573 -5.230 H 1 NIL_1    0.000
126 H_18251 102.820 64.497 -11.776 H 1 NIL_1    0.000
127 H_18252 102.747 66.277 -11.783 H 1 NIL_1    0.000
128 H_18781 110.813 70.144 -15.046 H 1 NIL_1    0.000
129 H_18782 110.567 71.732 -14.262 H 1 NIL_1    0.000
130 H_18783 109.908 71.429 -15.894 H 1 NIL_1    0.000
131 HP 107.215 68.253 -7.361 H 1 NIL_1    0.000
132 H_18131 110.649 69.585 -7.958 H 1 NIL_1    0.000
133 H_18132 110.855 67.926 -8.597 H 1 NIL_1    0.000
134 H_18271 100.489 65.511 -8.579 H 1 NIL_1    0.000
135 H_18272 100.907 67.037 -9.363 H 1 NIL_1    0.000
136 H_18791 103.674 69.149 -5.660 H 1 NIL_1    0.000
137 H_18792 105.043 68.127 -6.142 H 1 NIL_1    0.000
138 HP 102.690 64.979 -8.130 H 1 NIL_1    0.000
139 H_2210 102.800 79.780 -11.085 H 1 NIL_1    0.000
140 H_2206 98.839 79.267 -9.743 H 1 NIL_1    0.000
141 H_18761 109.434 70.686 -12.362 H 1 NIL_1    0.000
142 H_18762 109.785 69.102 -13.104 H 1 NIL_1    0.000
143 H_18721 103.473 70.088 -7.783 H 1 NIL_1    0.000
144 H_18722 105.112 69.588 -8.280 H 1 NIL_1    0.000
145 H_2212 103.412 77.728 -10.058 H 1 NIL_1    0.000
146 H_2204 99.476 77.197 -8.711 H 1 NIL_1    0.000
147 H_18711 107.035 69.181 -13.361 H 1 NIL_1    0.000
148 H_18712 107.913 68.350 -12.088 H 1 NIL_1    0.000
149 H_18291 106.663 68.627 -10.119 H 1 NIL_1    0.000
150 H_18292 106.645 70.251 -9.406 H 1 NIL_1    0.000
151 H_18401 102.483 68.220 -10.356 H 1 NIL_1    0.000
152 H_18402 104.170 67.695 -10.524 H 1 NIL_1    0.000
153 H_18681 102.781 76.263 -8.039 H 1 NIL_1    0.000
154 H_18682 101.106 75.737 -7.947 H 1 NIL_1    0.000
155 HP 105.806 72.221 -10.068 H 1 NIL_1    0.000
156 H_18181 104.872 73.853 -11.581 H 1 NIL_1    0.000
157 H_18182 103.908 72.612 -12.418 H 1 NIL_1    0.000
158 H_18161 103.508 71.927 -8.606 H 1 NIL_1    0.000
159 H_18162 102.251 71.208 -9.639 H 1 NIL_1    0.000
160 HH 108.894 69.621 -5.682 H 1 NIL_1    0.000
161 HH 100.974 63.261 -10.007 H 1 NIL_1    0.000
162 HH 101.398 72.708 -11.626 H 1 NIL_1    0.000
@<TRIPOS>BOND
1 1 2 1 
2 3 1 1 
3 4 1 1 
4 5 10 1 
5 5 1 1 
6 5 162 1 
7 6 2 1 
8 7 3 1 
9 7 6 1 
10 7 155 1 
11 8 4 1 
12 9 4 2 
13 10 8 1 
14 11 6 1 
15 12 7 1 
16 13 8 1 
17 13 153 1 
18 13 154 1 
19 14 10 2 
20 15 11 2 
21 16 20 1 
22 16 11 1 
23 16 151 1 
24 16 152 1 
25 17 12 2 
26 18 12 1 
27 19 13 1 
28 20 25 1 
29 21 18 1 
30 21 27 1 
31 21 149 1 
32 21 150 1 
33 22 18 1 
34 22 28 1 
35 22 147 1 
36 22 148 1 
37 23 19 2 
38 23 146 1 
39 24 30 2 
40 24 19 1 
41 24 145 1 
42 25 31 1 
43 26 20 1 
44 26 33 1 
45 26 143 1 
46 26 144 1 
47 27 35 1 
48 28 141 1 
49 28 142 1 
50 29 23 1 
51 29 140 1 
52 30 37 1 
53 30 139 1 
54 31 138 1 
55 32 25 2 
56 33 136 1 
57 33 137 1 
58 34 27 2 
59 36 28 1 
60 37 29 2 
61 38 45 1 
62 38 31 1 
63 38 134 1 
64 38 135 1 
65 39 46 1 
66 39 31 1 
67 39 47 1 
68 40 33 1 
69 41 35 1 
70 41 49 1 
71 41 132 1 
72 41 133 1 
73 42 51 1 
74 42 35 1 
75 42 131 1 
76 43 36 1 
77 43 128 1 
78 43 129 1 
79 43 130 1 
80 44 37 1 
81 45 46 1 
82 46 126 1 
83 46 127 1 
84 48 40 1 
85 48 123 1 
86 48 124 1 
87 48 125 1 
88 50 42 1 
89 50 59 2 
90 51 49 1 
91 52 44 1 
92 52 118 1 
93 52 119 1 
94 52 120 1 
95 53 45 1 
96 54 63 1 
97 54 45 1 
98 54 161 1 
99 55 47 2 
100 56 60 1 
101 56 47 1 
102 56 116 1 
103 56 117 1 
104 57 49 1 
105 58 66 1 
106 58 49 1 
107 58 160 1 
108 60 50 1 
109 61 53 1 
110 62 53 2 
111 63 61 1 
112 64 57 1 
113 65 57 2 
114 66 64 1 
115 67 60 1 
116 67 72 1 
117 67 114 1 
118 67 115 1 
119 68 61 1 
120 68 112 1 
121 68 113 1 
122 69 63 2 
123 70 64 1 
124 70 74 1 
125 71 66 2 
126 73 68 1 
127 73 76 2 
128 73 77 1 
129 74 78 1 
130 75 72 1 
131 77 82 2 
132 79 84 1 
133 79 74 2 
134 79 104 1 
135 80 75 1 
136 81 76 1 
137 82 85 1 
138 83 78 2 
139 84 86 2 
140 84 97 1 
141 85 81 2 
142 86 88 1 
143 86 83 1 
144 87 85 1 
145 89 87 1 
146 89 96 1 
147 90 88 1 
148 91 90 1 
149 92 90 1 
150 93 90 1 
151 94 89 1 
152 95 89 1 
153 98 83 1 
154 99 82 1 
155 100 81 1 
156 101 80 1 
157 102 80 1 
158 103 80 1 
159 105 78 1 
160 106 77 1 
161 107 76 1 
162 108 72 1 
163 109 72 1 
164 110 70 1 
165 111 70 1 
166 121 51 1 
167 122 51 1 
168 156 3 1 
169 157 3 1 
170 158 2 1 
171 159 2 1 
@<TRIPOS>SUBSTRUCTURE
1 NIL_1 1 RESIDUE 1 A NIL 1
