@<TRIPOS>MOLECULE
NIL
162 171 1 0 0
POLYMER
CHARGES


@<TRIPOS>ATOM
1 CQ 101.562 69.5357 -14.454 C.3 1 NIL_1    0.000
2 C_1816 101.613 68.047 -14.826 C.3 1 NIL_1    0.000
3 C_1818 101.547 69.560 -12.920 C.3 1 NIL_1    0.000
4 C_1854 100.350 70.238 -15.025 C.2 1 NIL_1    0.000
5 NH 102.607 70.351 -15.054 N.am 1 NIL_1    0.000
6 N 101.103 67.285 -13.677 N.am 1 NIL_1    0.000
7 CP 100.994 68.182 -12.501 C.3 1 NIL_1    0.000
8 N 100.781 71.297 -15.752 N.am 1 NIL_1    0.000
9 O 99.188 69.923 -14.849 O.2 1 NIL_1    0.000
10 C_1856 102.131 71.377 -15.779 C.2 1 NIL_1    0.000
11 C_1841 100.678 65.994 -13.766 C.2 1 NIL_1    0.000
12 C_1838 101.753 67.695 -11.260 C.2 1 NIL_1    0.000
13 C_1868 99.888 72.317 -16.326 C.3 1 NIL_1    0.000
14 O 102.805 72.222 -16.336 O.2 1 NIL_1    0.000
15 O 100.792 65.368 -14.803 O.2 1 NIL_1    0.000
16 C_1840 100.043 65.369 -12.531 C.3 1 NIL_1    0.000
17 O 102.889 67.283 -11.389 O.2 1 NIL_1    0.000
18 N 101.160 67.776 -10.027 N.am 1 NIL_1    0.000
19 C_1869 99.500 73.283 -15.224 C.2 1 NIL_1    0.000
20 N 99.131 64.229 -12.789 N.am 1 NIL_1    0.000
21 C_1829 101.818 67.233 -8.805 C.3 1 NIL_1    0.000
22 C_1871 99.788 68.325 -9.828 C.3 1 NIL_1    0.000
23 C_2204 100.327 74.265 -14.851 C.2 1 NIL_1    0.000
24 C_2212 98.337 73.146 -14.581 C.2 1 NIL_1    0.000
25 C_1843 99.588 62.947 -12.856 C.2 1 NIL_1    0.000
26 C_1872 97.713 64.646 -12.844 C.3 1 NIL_1    0.000
27 C_1830 101.256 65.880 -8.375 C.2 1 NIL_1    0.000
28 C_1876 99.392 68.819 -8.417 C.3 1 NIL_1    0.000
29 C_2206 100.006 75.086 -13.849 C.2 1 NIL_1    0.000
30 C_2210 98.014 73.964 -13.579 C.2 1 NIL_1    0.000
31 AP 98.626 61.783 -12.584 C.3 1 NIL_1    0.000
32 O 100.750 62.734 -13.145 O.2 1 NIL_1    0.000
33 C_1879 97.413 65.556 -14.052 C.3 1 NIL_1    0.000
34 O 100.397 65.803 -7.519 O.2 1 NIL_1    0.000
35 N 101.701 64.764 -9.016 N.am 1 NIL_1    0.000
36 O 98.159 69.579 -8.480 O.3 1 NIL_1    0.000
37 C_2208 98.844 74.937 -13.195 C.2 1 NIL_1    0.000
38 C_1827 97.954 61.338 -13.912 C.3 1 NIL_1    0.000
39 N 99.338 60.595 -12.038 N.am 1 NIL_1    0.000
40 O 96.042 65.995 -13.972 O.3 1 NIL_1    0.000
41 C_1813 103.003 64.637 -9.679 C.3 1 NIL_1    0.000
42 BP 101.022 63.437 -9.048 C.3 1 NIL_1    0.000
43 C_1878 96.947 68.833 -8.734 C.3 1 NIL_1    0.000
44 O 98.449 75.722 -12.139 O.3 1 NIL_1    0.000
45 AQ 98.292 59.842 -14.041 C.3 1 NIL_1    0.000
46 C_1825 99.543 59.684 -13.174 C.3 1 NIL_1    0.000
47 C_1844 99.716 60.261 -10.760 C.2 1 NIL_1    0.000
48 C_1881 95.693 67.039 -14.905 C.3 1 NIL_1    0.000
49 BQ 103.318 63.144 -9.682 C.3 1 NIL_1    0.000
50 C_1833 99.551 63.510 -9.501 C.2 1 NIL_1    0.000
51 C_1815 101.942 62.526 -9.900 C.3 1 NIL_1    0.000
52 C_2271 99.409 76.603 -11.508 C.3 1 NIL_1    0.000
53 C_1846 98.475 59.317 -15.447 C.2 1 NIL_1    0.000
54 NH 97.228 58.951 -13.597 N.am 1 NIL_1    0.000
55 O 100.449 59.303 -10.597 O.2 1 NIL_1    0.000
56 C_1835 99.256 60.987 -9.489 C.3 1 NIL_1    0.000
57 C_1850 104.403 62.770 -10.664 C.2 1 NIL_1    0.000
58 NH 103.934 62.684 -8.449 N.am 1 NIL_1    0.000
59 O 99.031 64.584 -9.740 O.2 1 NIL_1    0.000
60 N 98.780 62.384 -9.554 N.am 1 NIL_1    0.000
61 N 97.676 58.232 -15.599 N.am 1 NIL_1    0.000
62 O 99.224 59.770 -16.292 O.2 1 NIL_1    0.000
63 C_1848 96.936 57.991 -14.490 C.2 1 NIL_1    0.000
64 N 105.437 62.251 -9.956 N.am 1 NIL_1    0.000
65 O 104.369 62.926 -11.869 O.2 1 NIL_1    0.000
66 C_1852 105.159 62.168 -8.633 C.2 1 NIL_1    0.000
67 C_1870 97.307 62.474 -9.421 C.3 1 NIL_1    0.000
68 C_1866 97.680 57.349 -16.777 C.3 1 NIL_1    0.000
69 O 96.159 57.073 -14.316 O.2 1 NIL_1    0.000
70 C_1864 106.749 61.897 -10.523 C.3 1 NIL_1    0.000
71 O 105.875 61.716 -7.763 O.2 1 NIL_1    0.000
72 C_1873 96.883 62.678 -7.949 C.3 1 NIL_1    0.000
73 C_1867 96.419 57.407 -17.621 C.2 1 NIL_1    0.000
74 C_1865 106.956 60.412 -10.750 C.2 1 NIL_1    0.000
75 O 97.252 61.516 -7.175 O.3 1 NIL_1    0.000
76 C_2172 96.282 58.329 -18.578 C.2 1 NIL_1    0.000
77 C_2180 95.434 56.523 -17.438 C.2 1 NIL_1    0.000
78 C_2196 107.983 59.769 -10.182 C.2 1 NIL_1    0.000
79 C_2188 106.128 59.724 -11.540 C.2 1 NIL_1    0.000
80 C_1875 97.074 61.639 -5.750 C.3 1 NIL_1    0.000
81 C_2174 95.189 58.357 -19.343 C.2 1 NIL_1    0.000
82 C_2178 94.338 56.552 -18.198 C.2 1 NIL_1    0.000
83 C_2194 108.181 58.467 -10.406 C.2 1 NIL_1    0.000
84 C_2190 106.322 58.425 -11.762 C.2 1 NIL_1    0.000
85 C_2176 94.210 57.468 -19.170 C.2 1 NIL_1    0.000
86 C_2192 107.353 57.782 -11.207 C.2 1 NIL_1    0.000
87 O 93.121 57.551 -20.000 O.3 1 NIL_1    0.000
88 O 107.494 56.449 -11.495 O.3 1 NIL_1    0.000
89 C_2273 92.343 56.354 -20.247 C.3 1 NIL_1    0.000
90 C_2269 108.808 55.846 -11.401 C.3 1 NIL_1    0.000
91 H_22691 109.111 55.783 -10.353 H 1 NIL_1    0.000
92 H_22692 109.528 56.440 -11.971 H 1 NIL_1    0.000
93 H_22693 108.758 54.838 -11.822 H 1 NIL_1    0.000
94 H_22731 91.633 56.556 -21.053 H 1 NIL_1    0.000
95 H_22732 91.792 56.079 -19.344 H 1 NIL_1    0.000
96 H_22733 93.010 55.542 -20.546 H 1 NIL_1    0.000
97 H_2190 105.637 57.888 -12.412 H 1 NIL_1    0.000
98 H_2194 109.028 57.982 -9.925 H 1 NIL_1    0.000
99 H_2178 93.559 55.817 -18.011 H 1 NIL_1    0.000
100 H_2174 95.102 59.110 -20.123 H 1 NIL_1    0.000
101 H_18751 97.705 62.450 -5.376 H 1 NIL_1    0.000
102 H_18752 97.372 60.701 -5.276 H 1 NIL_1    0.000
103 H_18753 96.022 61.846 -5.529 H 1 NIL_1    0.000
104 H_2188 105.289 60.224 -12.017 H 1 NIL_1    0.000
105 H_2196 108.673 60.308 -9.536 H 1 NIL_1    0.000
106 H_2180 95.519 55.765 -16.663 H 1 NIL_1    0.000
107 H_2172 97.068 59.062 -18.744 H 1 NIL_1    0.000
108 H_18731 97.386 63.558 -7.536 H 1 NIL_1    0.000
109 H_18732 95.801 62.818 -7.881 H 1 NIL_1    0.000
110 H_18641 107.517 62.273 -9.842 H 1 NIL_1    0.000
111 H_18642 106.884 62.422 -11.473 H 1 NIL_1    0.000
112 H_18661 97.828 56.323 -16.428 H 1 NIL_1    0.000
113 H_18662 98.544 57.595 -17.401 H 1 NIL_1    0.000
114 H_18701 96.841 61.566 -9.812 H 1 NIL_1    0.000
115 H_18702 96.936 63.310 -10.019 H 1 NIL_1    0.000
116 H_18351 98.447 60.361 -9.103 H 1 NIL_1    0.000
117 H_18352 100.053 60.919 -8.744 H 1 NIL_1    0.000
118 H_22711 98.959 77.016 -10.602 H 1 NIL_1    0.000
119 H_22712 99.662 77.417 -12.192 H 1 NIL_1    0.000
120 H_22713 100.306 76.038 -11.241 H 1 NIL_1    0.000
121 H_18151 101.936 61.478 -9.600 H 1 NIL_1    0.000
122 H_18152 101.679 62.603 -10.950 H 1 NIL_1    0.000
123 H_18811 96.257 67.944 -14.663 H 1 NIL_1    0.000
124 H_18812 94.623 67.245 -14.825 H 1 NIL_1    0.000
125 H_18813 95.931 66.712 -15.921 H 1 NIL_1    0.000
126 H_18251 99.665 58.643 -12.856 H 1 NIL_1    0.000
127 H_18252 100.431 60.006 -13.724 H 1 NIL_1    0.000
128 H_18781 96.977 68.404 -9.740 H 1 NIL_1    0.000
129 H_18782 96.095 69.514 -8.656 H 1 NIL_1    0.000
130 H_18783 96.846 68.037 -7.992 H 1 NIL_1    0.000
131 HP 101.013 63.051 -8.026 H 1 NIL_1    0.000
132 H_18131 103.783 65.200 -9.159 H 1 NIL_1    0.000
133 H_18132 102.903 64.979 -10.710 H 1 NIL_1    0.000
134 H_18271 96.873 61.507 -13.884 H 1 NIL_1    0.000
135 H_18272 98.363 61.899 -14.757 H 1 NIL_1    0.000
136 H_18791 98.055 66.441 -14.034 H 1 NIL_1    0.000
137 H_18792 97.566 65.010 -14.988 H 1 NIL_1    0.000
138 HP 97.851 62.103 -11.892 H 1 NIL_1    0.000
139 H_2210 97.066 73.827 -13.064 H 1 NIL_1    0.000
140 H_2206 100.714 75.865 -13.578 H 1 NIL_1    0.000
141 H_18761 99.255 67.987 -7.725 H 1 NIL_1    0.000
142 H_18762 100.169 69.486 -8.034 H 1 NIL_1    0.000
143 H_18721 97.466 65.178 -11.920 H 1 NIL_1    0.000
144 H_18722 97.057 63.779 -12.915 H 1 NIL_1    0.000
145 H_2212 97.649 72.354 -14.865 H 1 NIL_1    0.000
146 H_2204 101.279 74.396 -15.359 H 1 NIL_1    0.000
147 H_18711 99.077 67.559 -10.144 H 1 NIL_1    0.000
148 H_18712 99.676 69.192 -10.483 H 1 NIL_1    0.000
149 H_18291 101.701 67.919 -7.964 H 1 NIL_1    0.000
150 H_18292 102.895 67.137 -8.961 H 1 NIL_1    0.000
151 H_18401 100.852 65.049 -11.872 H 1 NIL_1    0.000
152 H_18402 99.480 66.149 -12.014 H 1 NIL_1    0.000
153 H_18681 99.001 71.833 -16.743 H 1 NIL_1    0.000
154 H_18682 100.399 72.849 -17.134 H 1 NIL_1    0.000
155 HP 99.928 68.274 -12.296 H 1 NIL_1    0.000
156 H_18181 100.939 70.375 -12.519 H 1 NIL_1    0.000
157 H_18182 102.569 69.690 -12.553 H 1 NIL_1    0.000
158 H_18161 101.009 67.852 -15.719 H 1 NIL_1    0.000
159 H_18162 102.645 67.736 -15.011 H 1 NIL_1    0.000
160 HH 103.454 62.704 -7.563 H 1 NIL_1    0.000
161 HH 96.830 58.995 -12.671 H 1 NIL_1    0.000
162 HH 103.589 70.182 -14.896 H 1 NIL_1    0.000
@<TRIPOS>BOND
1 1 2 1 
2 3 1 1 
3 4 1 1 
4 5 10 1 
5 5 1 1 
6 5 162 1 
7 6 2 1 
8 7 3 1 
9 7 6 1 
10 7 155 1 
11 8 4 1 
12 9 4 2 
13 10 8 1 
14 11 6 1 
15 12 7 1 
16 13 8 1 
17 13 153 1 
18 13 154 1 
19 14 10 2 
20 15 11 2 
21 16 20 1 
22 16 11 1 
23 16 151 1 
24 16 152 1 
25 17 12 2 
26 18 12 1 
27 19 13 1 
28 20 25 1 
29 21 18 1 
30 21 27 1 
31 21 149 1 
32 21 150 1 
33 22 18 1 
34 22 28 1 
35 22 147 1 
36 22 148 1 
37 23 19 2 
38 23 146 1 
39 24 30 2 
40 24 19 1 
41 24 145 1 
42 25 31 1 
43 26 20 1 
44 26 33 1 
45 26 143 1 
46 26 144 1 
47 27 35 1 
48 28 141 1 
49 28 142 1 
50 29 23 1 
51 29 140 1 
52 30 37 1 
53 30 139 1 
54 31 138 1 
55 32 25 2 
56 33 136 1 
57 33 137 1 
58 34 27 2 
59 36 28 1 
60 37 29 2 
61 38 45 1 
62 38 31 1 
63 38 134 1 
64 38 135 1 
65 39 46 1 
66 39 31 1 
67 39 47 1 
68 40 33 1 
69 41 35 1 
70 41 49 1 
71 41 132 1 
72 41 133 1 
73 42 51 1 
74 42 35 1 
75 42 131 1 
76 43 36 1 
77 43 128 1 
78 43 129 1 
79 43 130 1 
80 44 37 1 
81 45 46 1 
82 46 126 1 
83 46 127 1 
84 48 40 1 
85 48 123 1 
86 48 124 1 
87 48 125 1 
88 50 42 1 
89 50 59 2 
90 51 49 1 
91 52 44 1 
92 52 118 1 
93 52 119 1 
94 52 120 1 
95 53 45 1 
96 54 63 1 
97 54 45 1 
98 54 161 1 
99 55 47 2 
100 56 60 1 
101 56 47 1 
102 56 116 1 
103 56 117 1 
104 57 49 1 
105 58 66 1 
106 58 49 1 
107 58 160 1 
108 60 50 1 
109 61 53 1 
110 62 53 2 
111 63 61 1 
112 64 57 1 
113 65 57 2 
114 66 64 1 
115 67 60 1 
116 67 72 1 
117 67 114 1 
118 67 115 1 
119 68 61 1 
120 68 112 1 
121 68 113 1 
122 69 63 2 
123 70 64 1 
124 70 74 1 
125 71 66 2 
126 73 68 1 
127 73 76 2 
128 73 77 1 
129 74 78 1 
130 75 72 1 
131 77 82 2 
132 79 84 1 
133 79 74 2 
134 79 104 1 
135 80 75 1 
136 81 76 1 
137 82 85 1 
138 83 78 2 
139 84 86 2 
140 84 97 1 
141 85 81 2 
142 86 88 1 
143 86 83 1 
144 87 85 1 
145 89 87 1 
146 89 96 1 
147 90 88 1 
148 91 90 1 
149 92 90 1 
150 93 90 1 
151 94 89 1 
152 95 89 1 
153 98 83 1 
154 99 82 1 
155 100 81 1 
156 101 80 1 
157 102 80 1 
158 103 80 1 
159 105 78 1 
160 106 77 1 
161 107 76 1 
162 108 72 1 
163 109 72 1 
164 110 70 1 
165 111 70 1 
166 121 51 1 
167 122 51 1 
168 156 3 1 
169 157 3 1 
170 158 2 1 
171 159 2 1 
@<TRIPOS>SUBSTRUCTURE
1 NIL_1 1 RESIDUE 1 A NIL 1
