@<TRIPOS>MOLECULE
NIL
162 171 1 0 0
POLYMER
CHARGES


@<TRIPOS>ATOM
1 CQ 94.8859 63.6443 -18.9632 C.3 1 NIL_1    0.000
2 C_1816 93.936 62.441 -18.834 C.3 1 NIL_1    0.000
3 C_1818 95.830 63.580 -17.751 C.3 1 NIL_1    0.000
4 C_1854 94.114 64.943 -19.014 C.2 1 NIL_1    0.000
5 NH 95.574 63.730 -20.241 N.am 1 NIL_1    0.000
6 N 94.046 61.929 -17.461 N.am 1 NIL_1    0.000
7 CP 95.179 62.578 -16.781 C.3 1 NIL_1    0.000
8 N 94.423 65.573 -20.178 N.am 1 NIL_1    0.000
9 O 93.342 65.335 -18.160 O.2 1 NIL_1    0.000
10 C_1856 95.294 64.852 -20.922 C.2 1 NIL_1    0.000
11 C_1841 93.266 60.964 -16.905 C.2 1 NIL_1    0.000
12 C_1838 96.242 61.685 -16.126 C.2 1 NIL_1    0.000
13 C_1868 93.863 66.851 -20.663 C.3 1 NIL_1    0.000
14 O 95.744 65.146 -22.012 O.2 1 NIL_1    0.000
15 O 93.420 60.618 -15.748 O.2 1 NIL_1    0.000
16 C_1840 92.208 60.338 -17.804 C.3 1 NIL_1    0.000
17 O 96.594 61.991 -15.002 O.2 1 NIL_1    0.000
18 N 96.792 60.586 -16.742 N.am 1 NIL_1    0.000
19 C_1869 93.180 67.788 -19.687 C.2 1 NIL_1    0.000
20 N 91.510 59.198 -17.173 N.am 1 NIL_1    0.000
21 C_1829 97.803 59.771 -16.015 C.3 1 NIL_1    0.000
22 C_1871 96.341 59.943 -18.009 C.3 1 NIL_1    0.000
23 C_2204 93.897 68.635 -18.941 C.2 1 NIL_1    0.000
24 C_2212 91.848 67.792 -19.571 C.2 1 NIL_1    0.000
25 C_1843 91.960 57.916 -17.329 C.2 1 NIL_1    0.000
26 C_1872 90.409 59.641 -16.282 C.3 1 NIL_1    0.000
27 C_1830 98.836 59.067 -16.886 C.2 1 NIL_1    0.000
28 C_1876 97.008 60.454 -19.303 C.3 1 NIL_1    0.000
29 C_2206 93.294 69.474 -18.098 C.2 1 NIL_1    0.000
30 C_2210 91.243 68.631 -18.729 C.2 1 NIL_1    0.000
31 AP 91.527 56.849 -16.320 C.3 1 NIL_1    0.000
32 O 92.710 57.630 -18.245 O.2 1 NIL_1    0.000
33 C_1879 89.027 59.708 -16.969 C.3 1 NIL_1    0.000
34 O 99.571 59.725 -17.596 O.2 1 NIL_1    0.000
35 N 98.946 57.709 -16.840 N.am 1 NIL_1    0.000
36 O 96.123 60.160 -20.405 O.3 1 NIL_1    0.000
37 C_2208 91.964 69.478 -17.987 C.2 1 NIL_1    0.000
38 C_1827 90.121 56.301 -16.654 C.3 1 NIL_1    0.000
39 N 92.438 55.678 -16.228 N.am 1 NIL_1    0.000
40 O 88.923 60.896 -17.786 O.3 1 NIL_1    0.000
41 C_1813 99.863 56.959 -17.700 C.3 1 NIL_1    0.000
42 BP 98.255 56.763 -15.934 C.3 1 NIL_1    0.000
43 C_1878 96.625 60.503 -21.711 C.3 1 NIL_1    0.000
44 O 91.356 70.359 -17.142 O.3 1 NIL_1    0.000
45 AQ 90.345 54.859 -17.125 C.3 1 NIL_1    0.000
46 C_1825 91.691 54.447 -16.517 C.3 1 NIL_1    0.000
47 C_1844 93.735 55.663 -15.811 C.2 1 NIL_1    0.000
48 C_1881 88.952 60.680 -19.215 C.3 1 NIL_1    0.000
49 BQ 100.173 55.659 -16.959 C.3 1 NIL_1    0.000
50 C_1833 96.744 56.713 -16.188 C.2 1 NIL_1    0.000
51 C_1815 98.895 55.368 -16.154 C.3 1 NIL_1    0.000
52 C_2271 90.750 69.761 -15.974 C.3 1 NIL_1    0.000
53 C_1846 90.346 54.745 -18.635 C.2 1 NIL_1    0.000
54 NH 89.254 53.948 -16.822 N.am 1 NIL_1    0.000
55 O 94.340 54.612 -15.705 O.2 1 NIL_1    0.000
56 C_1835 94.398 56.993 -15.477 C.3 1 NIL_1    0.000
57 C_1850 100.616 54.573 -17.909 C.2 1 NIL_1    0.000
58 NH 101.378 55.778 -16.150 N.am 1 NIL_1    0.000
59 O 96.348 56.529 -17.325 O.2 1 NIL_1    0.000
60 N 95.848 56.887 -15.163 N.am 1 NIL_1    0.000
61 N 89.375 53.872 -18.989 N.am 1 NIL_1    0.000
62 O 91.088 55.324 -19.405 O.2 1 NIL_1    0.000
63 C_1848 88.714 53.383 -17.913 C.2 1 NIL_1    0.000
64 N 101.915 54.296 -17.648 N.am 1 NIL_1    0.000
65 O 99.937 54.055 -18.775 O.2 1 NIL_1    0.000
66 C_1852 102.388 55.013 -16.601 C.2 1 NIL_1    0.000
67 C_1870 96.186 56.806 -13.713 C.3 1 NIL_1    0.000
68 C_1866 89.108 53.452 -20.374 C.3 1 NIL_1    0.000
69 O 87.803 52.578 -17.915 O.2 1 NIL_1    0.000
70 C_1864 102.744 53.379 -18.451 C.3 1 NIL_1    0.000
71 O 103.514 54.983 -16.145 O.2 1 NIL_1    0.000
72 C_1873 95.297 57.580 -12.714 C.3 1 NIL_1    0.000
73 C_1867 88.601 54.552 -21.289 C.2 1 NIL_1    0.000
74 C_1865 103.239 52.139 -17.728 C.2 1 NIL_1    0.000
75 O 95.258 58.974 -13.097 O.3 1 NIL_1    0.000
76 C_2172 87.482 55.223 -21.005 C.2 1 NIL_1    0.000
77 C_2180 89.259 54.856 -22.412 C.2 1 NIL_1    0.000
78 C_2196 102.483 51.506 -16.824 C.2 1 NIL_1    0.000
79 C_2188 104.454 51.653 -18.000 C.2 1 NIL_1    0.000
80 C_1875 94.484 59.824 -12.226 C.3 1 NIL_1    0.000
81 C_2174 87.026 56.167 -21.829 C.2 1 NIL_1    0.000
82 C_2178 88.808 55.801 -23.237 C.2 1 NIL_1    0.000
83 C_2194 102.938 50.423 -16.193 C.2 1 NIL_1    0.000
84 C_2190 104.910 50.566 -17.373 C.2 1 NIL_1    0.000
85 C_2176 87.677 56.466 -22.957 C.2 1 NIL_1    0.000
86 C_2192 104.163 49.948 -16.456 C.2 1 NIL_1    0.000
87 O 87.144 57.447 -23.760 O.3 1 NIL_1    0.000
88 O 104.677 48.837 -15.841 O.3 1 NIL_1    0.000
89 C_2273 87.710 57.674 -25.074 C.3 1 NIL_1    0.000
90 C_2269 104.427 48.675 -14.423 C.3 1 NIL_1    0.000
91 H_22691 104.759 49.570 -13.888 H 1 NIL_1    0.000
92 H_22692 104.990 47.808 -14.067 H 1 NIL_1    0.000
93 H_22693 103.363 48.503 -14.247 H 1 NIL_1    0.000
94 H_22731 87.670 56.748 -25.652 H 1 NIL_1    0.000
95 H_22732 88.745 58.012 -24.975 H 1 NIL_1    0.000
96 H_22733 87.121 58.443 -25.579 H 1 NIL_1    0.000
97 H_2190 105.902 50.189 -17.613 H 1 NIL_1    0.000
98 H_2194 102.293 49.933 -15.471 H 1 NIL_1    0.000
99 H_2178 89.383 56.007 -24.139 H 1 NIL_1    0.000
100 H_2174 86.110 56.695 -21.576 H 1 NIL_1    0.000
101 H_18751 94.525 60.847 -12.605 H 1 NIL_1    0.000
102 H_18752 94.905 59.790 -11.216 H 1 NIL_1    0.000
103 H_18753 93.446 59.479 -12.207 H 1 NIL_1    0.000
104 H_2188 105.084 52.143 -18.740 H 1 NIL_1    0.000
105 H_2196 101.485 51.871 -16.591 H 1 NIL_1    0.000
106 H_2180 90.173 54.322 -22.665 H 1 NIL_1    0.000
107 H_2172 86.929 54.996 -20.097 H 1 NIL_1    0.000
108 H_18731 94.285 57.170 -12.687 H 1 NIL_1    0.000
109 H_18732 95.731 57.503 -11.713 H 1 NIL_1    0.000
110 H_18641 103.605 53.954 -18.805 H 1 NIL_1    0.000
111 H_18642 102.181 53.066 -19.335 H 1 NIL_1    0.000
112 H_18661 88.374 52.642 -20.362 H 1 NIL_1    0.000
113 H_18662 90.037 53.038 -20.775 H 1 NIL_1    0.000
114 H_18701 97.190 57.184 -13.538 H 1 NIL_1    0.000
115 H_18702 96.181 55.749 -13.433 H 1 NIL_1    0.000
116 H_18351 94.307 57.644 -16.345 H 1 NIL_1    0.000
117 H_18352 93.821 57.455 -14.679 H 1 NIL_1    0.000
118 H_22711 90.028 68.998 -16.277 H 1 NIL_1    0.000
119 H_22712 90.237 70.542 -15.408 H 1 NIL_1    0.000
120 H_22713 91.530 69.311 -15.354 H 1 NIL_1    0.000
121 H_18151 99.105 54.864 -15.208 H 1 NIL_1    0.000
122 H_18152 98.229 54.728 -16.740 H 1 NIL_1    0.000
123 H_18811 89.912 60.246 -19.503 H 1 NIL_1    0.000
124 H_18812 88.819 61.638 -19.723 H 1 NIL_1    0.000
125 H_18813 88.140 60.002 -19.490 H 1 NIL_1    0.000
126 H_18251 91.531 53.914 -15.574 H 1 NIL_1    0.000
127 H_18252 92.253 53.812 -17.207 H 1 NIL_1    0.000
128 H_18781 95.826 60.353 -22.442 H 1 NIL_1    0.000
129 H_18782 97.471 59.854 -21.954 H 1 NIL_1    0.000
130 H_18783 96.941 61.550 -21.722 H 1 NIL_1    0.000
131 HP 98.483 57.093 -14.924 H 1 NIL_1    0.000
132 H_18131 100.779 57.523 -17.901 H 1 NIL_1    0.000
133 H_18132 99.352 56.742 -18.641 H 1 NIL_1    0.000
134 H_18271 89.511 56.310 -15.746 H 1 NIL_1    0.000
135 H_18272 89.608 56.882 -17.420 H 1 NIL_1    0.000
136 H_18791 88.841 58.823 -17.580 H 1 NIL_1    0.000
137 H_18792 88.254 59.770 -16.202 H 1 NIL_1    0.000
138 HP 91.507 57.315 -15.334 H 1 NIL_1    0.000
139 H_2210 90.157 68.626 -18.654 H 1 NIL_1    0.000
140 H_2206 93.893 70.161 -17.503 H 1 NIL_1    0.000
141 H_18761 97.173 61.531 -19.266 H 1 NIL_1    0.000
142 H_18762 97.961 59.949 -19.469 H 1 NIL_1    0.000
143 H_18721 90.641 60.635 -15.888 H 1 NIL_1    0.000
144 H_18722 90.328 58.981 -15.418 H 1 NIL_1    0.000
145 H_2212 91.246 67.112 -20.171 H 1 NIL_1    0.000
146 H_2204 94.981 68.647 -19.023 H 1 NIL_1    0.000
147 H_18711 95.265 60.001 -18.113 H 1 NIL_1    0.000
148 H_18712 96.542 58.876 -17.953 H 1 NIL_1    0.000
149 H_18291 97.281 59.059 -15.381 H 1 NIL_1    0.000
150 H_18292 98.390 60.415 -15.356 H 1 NIL_1    0.000
151 H_18401 91.495 61.122 -18.060 H 1 NIL_1    0.000
152 H_18402 92.699 60.013 -18.727 H 1 NIL_1    0.000
153 H_18681 93.161 66.609 -21.466 H 1 NIL_1    0.000
154 H_18682 94.685 67.405 -21.127 H 1 NIL_1    0.000
155 HP 94.738 63.162 -15.967 H 1 NIL_1    0.000
156 H_18181 95.954 64.556 -17.277 H 1 NIL_1    0.000
157 H_18182 96.820 63.236 -18.055 H 1 NIL_1    0.000
158 H_18161 92.904 62.736 -19.048 H 1 NIL_1    0.000
159 H_18162 94.227 61.651 -19.527 H 1 NIL_1    0.000
160 HH 101.467 56.446 -15.400 H 1 NIL_1    0.000
161 HH 88.962 53.743 -15.878 H 1 NIL_1    0.000
162 HH 96.199 63.012 -20.576 H 1 NIL_1    0.000
@<TRIPOS>BOND
1 1 2 1 
2 3 1 1 
3 4 1 1 
4 5 10 1 
5 5 1 1 
6 5 162 1 
7 6 2 1 
8 7 3 1 
9 7 6 1 
10 7 155 1 
11 8 4 1 
12 9 4 2 
13 10 8 1 
14 11 6 1 
15 12 7 1 
16 13 8 1 
17 13 153 1 
18 13 154 1 
19 14 10 2 
20 15 11 2 
21 16 20 1 
22 16 11 1 
23 16 151 1 
24 16 152 1 
25 17 12 2 
26 18 12 1 
27 19 13 1 
28 20 25 1 
29 21 18 1 
30 21 27 1 
31 21 149 1 
32 21 150 1 
33 22 18 1 
34 22 28 1 
35 22 147 1 
36 22 148 1 
37 23 19 2 
38 23 146 1 
39 24 30 2 
40 24 19 1 
41 24 145 1 
42 25 31 1 
43 26 20 1 
44 26 33 1 
45 26 143 1 
46 26 144 1 
47 27 35 1 
48 28 141 1 
49 28 142 1 
50 29 23 1 
51 29 140 1 
52 30 37 1 
53 30 139 1 
54 31 138 1 
55 32 25 2 
56 33 136 1 
57 33 137 1 
58 34 27 2 
59 36 28 1 
60 37 29 2 
61 38 45 1 
62 38 31 1 
63 38 134 1 
64 38 135 1 
65 39 46 1 
66 39 31 1 
67 39 47 1 
68 40 33 1 
69 41 35 1 
70 41 49 1 
71 41 132 1 
72 41 133 1 
73 42 51 1 
74 42 35 1 
75 42 131 1 
76 43 36 1 
77 43 128 1 
78 43 129 1 
79 43 130 1 
80 44 37 1 
81 45 46 1 
82 46 126 1 
83 46 127 1 
84 48 40 1 
85 48 123 1 
86 48 124 1 
87 48 125 1 
88 50 42 1 
89 50 59 2 
90 51 49 1 
91 52 44 1 
92 52 118 1 
93 52 119 1 
94 52 120 1 
95 53 45 1 
96 54 63 1 
97 54 45 1 
98 54 161 1 
99 55 47 2 
100 56 60 1 
101 56 47 1 
102 56 116 1 
103 56 117 1 
104 57 49 1 
105 58 66 1 
106 58 49 1 
107 58 160 1 
108 60 50 1 
109 61 53 1 
110 62 53 2 
111 63 61 1 
112 64 57 1 
113 65 57 2 
114 66 64 1 
115 67 60 1 
116 67 72 1 
117 67 114 1 
118 67 115 1 
119 68 61 1 
120 68 112 1 
121 68 113 1 
122 69 63 2 
123 70 64 1 
124 70 74 1 
125 71 66 2 
126 73 68 1 
127 73 76 2 
128 73 77 1 
129 74 78 1 
130 75 72 1 
131 77 82 2 
132 79 84 1 
133 79 74 2 
134 79 104 1 
135 80 75 1 
136 81 76 1 
137 82 85 1 
138 83 78 2 
139 84 86 2 
140 84 97 1 
141 85 81 2 
142 86 88 1 
143 86 83 1 
144 87 85 1 
145 89 87 1 
146 89 96 1 
147 90 88 1 
148 91 90 1 
149 92 90 1 
150 93 90 1 
151 94 89 1 
152 95 89 1 
153 98 83 1 
154 99 82 1 
155 100 81 1 
156 101 80 1 
157 102 80 1 
158 103 80 1 
159 105 78 1 
160 106 77 1 
161 107 76 1 
162 108 72 1 
163 109 72 1 
164 110 70 1 
165 111 70 1 
166 121 51 1 
167 122 51 1 
168 156 3 1 
169 157 3 1 
170 158 2 1 
171 159 2 1 
@<TRIPOS>SUBSTRUCTURE
1 NIL_1 1 RESIDUE 1 A NIL 1
