@<TRIPOS>MOLECULE
NIL
162 171 1 0 0
POLYMER
CHARGES


@<TRIPOS>ATOM
1 CQ 101.038 69.0769 -14.32 C.3 1 NIL_1    0.000
2 C_1816 101.004 67.560 -14.126 C.3 1 NIL_1    0.000
3 C_1818 100.518 69.619 -12.988 C.3 1 NIL_1    0.000
4 C_1854 100.168 69.492 -15.485 C.2 1 NIL_1    0.000
5 NH 102.307 69.634 -14.758 N.am 1 NIL_1    0.000
6 N 99.880 67.287 -13.207 N.am 1 NIL_1    0.000
7 CP 99.483 68.560 -12.565 C.3 1 NIL_1    0.000
8 N 100.931 70.206 -16.342 N.am 1 NIL_1    0.000
9 O 98.991 69.226 -15.644 O.2 1 NIL_1    0.000
10 C_1856 102.213 70.309 -15.917 C.2 1 NIL_1    0.000
11 C_1841 99.146 66.144 -13.190 C.2 1 NIL_1    0.000
12 C_1838 99.127 68.711 -11.080 C.2 1 NIL_1    0.000
13 C_1868 100.393 70.898 -17.524 C.3 1 NIL_1    0.000
14 O 103.118 70.909 -16.462 O.2 1 NIL_1    0.000
15 O 98.263 65.970 -12.371 O.2 1 NIL_1    0.000
16 C_1840 99.463 65.130 -14.282 C.3 1 NIL_1    0.000
17 O 98.512 69.724 -10.809 O.2 1 NIL_1    0.000
18 N 99.418 67.811 -10.079 N.am 1 NIL_1    0.000
19 C_1869 99.726 72.166 -17.030 C.2 1 NIL_1    0.000
20 N 98.661 63.896 -14.209 N.am 1 NIL_1    0.000
21 C_1829 100.504 66.783 -10.124 C.3 1 NIL_1    0.000
22 C_1871 98.958 68.127 -8.692 C.3 1 NIL_1    0.000
23 C_2204 100.450 73.265 -16.800 C.2 1 NIL_1    0.000
24 C_2212 98.415 72.195 -16.773 C.2 1 NIL_1    0.000
25 C_1843 99.187 62.749 -13.689 C.2 1 NIL_1    0.000
26 C_1872 97.278 64.076 -14.721 C.3 1 NIL_1    0.000
27 C_1830 100.289 65.465 -9.367 C.2 1 NIL_1    0.000
28 C_1876 97.512 67.654 -8.366 C.3 1 NIL_1    0.000
29 C_2206 99.877 74.363 -16.307 C.2 1 NIL_1    0.000
30 C_2210 97.840 73.291 -16.276 C.2 1 NIL_1    0.000
31 AP 98.253 61.591 -13.353 C.3 1 NIL_1    0.000
32 O 100.385 62.645 -13.498 O.2 1 NIL_1    0.000
33 C_1879 97.123 63.830 -16.244 C.3 1 NIL_1    0.000
34 O 99.377 65.301 -8.585 O.2 1 NIL_1    0.000
35 N 101.191 64.461 -9.546 N.am 1 NIL_1    0.000
36 O 96.556 68.210 -9.297 O.3 1 NIL_1    0.000
37 C_2208 98.571 74.387 -16.028 C.2 1 NIL_1    0.000
38 C_1827 97.871 60.811 -14.629 C.3 1 NIL_1    0.000
39 N 98.848 60.615 -12.410 N.am 1 NIL_1    0.000
40 O 97.730 64.880 -17.039 O.3 1 NIL_1    0.000
41 C_1813 102.247 64.402 -10.572 C.3 1 NIL_1    0.000
42 BP 101.320 63.282 -8.656 C.3 1 NIL_1    0.000
43 C_1878 95.947 69.459 -8.906 C.3 1 NIL_1    0.000
44 O 98.057 75.545 -15.501 O.3 1 NIL_1    0.000
45 AQ 97.871 59.346 -14.188 C.3 1 NIL_1    0.000
46 C_1825 98.903 59.299 -13.057 C.3 1 NIL_1    0.000
47 C_1844 99.264 60.842 -11.133 C.2 1 NIL_1    0.000
48 C_1881 97.054 66.160 -17.049 C.3 1 NIL_1    0.000
49 BQ 103.168 63.218 -10.207 C.3 1 NIL_1    0.000
50 C_1833 100.047 62.557 -8.207 C.2 1 NIL_1    0.000
51 C_1815 102.338 62.319 -9.282 C.3 1 NIL_1    0.000
52 C_2271 96.834 75.483 -14.728 C.3 1 NIL_1    0.000
53 C_1846 98.145 58.365 -15.299 C.2 1 NIL_1    0.000
54 NH 96.565 58.871 -13.759 N.am 1 NIL_1    0.000
55 O 99.738 59.940 -10.468 O.2 1 NIL_1    0.000
56 C_1835 99.125 62.249 -10.564 C.3 1 NIL_1    0.000
57 C_1850 103.718 62.463 -11.394 C.2 1 NIL_1    0.000
58 NH 104.419 63.647 -9.598 N.am 1 NIL_1    0.000
59 O 99.917 62.304 -7.023 O.2 1 NIL_1    0.000
60 N 99.042 62.264 -9.087 N.am 1 NIL_1    0.000
61 N 97.103 57.502 -15.356 N.am 1 NIL_1    0.000
62 O 99.124 58.348 -16.019 O.2 1 NIL_1    0.000
63 C_1848 96.153 57.785 -14.434 C.2 1 NIL_1    0.000
64 N 105.068 62.526 -11.341 N.am 1 NIL_1    0.000
65 O 103.070 61.871 -12.236 O.2 1 NIL_1    0.000
66 C_1852 105.504 63.228 -10.269 C.2 1 NIL_1    0.000
67 C_1870 97.704 61.842 -8.622 C.3 1 NIL_1    0.000
68 C_1866 97.026 56.360 -16.281 C.3 1 NIL_1    0.000
69 O 95.119 57.178 -14.236 O.2 1 NIL_1    0.000
70 C_1864 105.955 61.850 -12.300 C.3 1 NIL_1    0.000
71 O 106.658 63.442 -9.953 O.2 1 NIL_1    0.000
72 C_1873 96.800 63.059 -8.343 C.3 1 NIL_1    0.000
73 C_1867 95.860 56.426 -17.249 C.2 1 NIL_1    0.000
74 C_1865 106.085 60.375 -11.971 C.2 1 NIL_1    0.000
75 O 95.490 62.613 -7.928 O.3 1 NIL_1    0.000
76 C_2172 95.685 57.485 -18.045 C.2 1 NIL_1    0.000
77 C_2180 94.990 55.415 -17.329 C.2 1 NIL_1    0.000
78 C_2196 106.781 59.973 -10.903 C.2 1 NIL_1    0.000
79 C_2188 105.505 59.450 -12.741 C.2 1 NIL_1    0.000
80 C_1875 95.367 62.201 -6.549 C.3 1 NIL_1    0.000
81 C_2174 94.660 57.531 -18.899 C.2 1 NIL_1    0.000
82 C_2178 93.966 55.458 -18.183 C.2 1 NIL_1    0.000
83 C_2194 106.891 58.678 -10.603 C.2 1 NIL_1    0.000
84 C_2190 105.615 58.153 -12.445 C.2 1 NIL_1    0.000
85 C_2176 93.789 56.521 -18.981 C.2 1 NIL_1    0.000
86 C_2192 106.304 57.750 -11.374 C.2 1 NIL_1    0.000
87 O 92.766 56.639 -19.892 O.3 1 NIL_1    0.000
88 O 106.373 56.398 -11.138 O.3 1 NIL_1    0.000
89 C_2273 91.732 55.626 -19.950 C.3 1 NIL_1    0.000
90 C_2269 106.937 55.912 -9.895 C.3 1 NIL_1    0.000
91 H_22691 106.357 56.300 -9.052 H 1 NIL_1    0.000
92 H_22692 107.981 56.228 -9.814 H 1 NIL_1    0.000
93 H_22693 106.892 54.820 -9.895 H 1 NIL_1    0.000
94 H_22731 92.176 54.656 -20.189 H 1 NIL_1    0.000
95 H_22732 91.020 55.899 -20.733 H 1 NIL_1    0.000
96 H_22733 91.212 55.579 -18.988 H 1 NIL_1    0.000
97 H_2190 105.135 57.416 -13.085 H 1 NIL_1    0.000
98 H_2194 107.467 58.405 -9.724 H 1 NIL_1    0.000
99 H_2178 93.290 54.608 -18.210 H 1 NIL_1    0.000
100 H_2174 94.538 58.403 -19.538 H 1 NIL_1    0.000
101 H_18751 95.610 63.045 -5.898 H 1 NIL_1    0.000
102 H_18752 96.047 61.372 -6.347 H 1 NIL_1    0.000
103 H_18753 94.339 61.878 -6.365 H 1 NIL_1    0.000
104 H_2188 104.935 59.749 -13.618 H 1 NIL_1    0.000
105 H_2196 107.267 60.705 -10.263 H 1 NIL_1    0.000
106 H_2180 95.112 54.539 -16.696 H 1 NIL_1    0.000
107 H_2172 96.381 58.320 -18.002 H 1 NIL_1    0.000
108 H_18731 97.232 63.692 -7.563 H 1 NIL_1    0.000
109 H_18732 96.683 63.644 -9.258 H 1 NIL_1    0.000
110 H_18641 106.942 62.321 -12.278 H 1 NIL_1    0.000
111 H_18642 105.549 61.981 -13.307 H 1 NIL_1    0.000
112 H_18661 96.951 55.454 -15.673 H 1 NIL_1    0.000
113 H_18662 97.956 56.292 -16.852 H 1 NIL_1    0.000
114 H_18701 97.806 61.239 -7.717 H 1 NIL_1    0.000
115 H_18702 97.224 61.216 -9.381 H 1 NIL_1    0.000
116 H_18351 99.974 62.820 -10.928 H 1 NIL_1    0.000
117 H_18352 98.217 62.705 -10.965 H 1 NIL_1    0.000
118 H_22711 95.994 75.249 -15.387 H 1 NIL_1    0.000
119 H_22712 96.667 76.457 -14.261 H 1 NIL_1    0.000
120 H_22713 96.929 74.720 -13.950 H 1 NIL_1    0.000
121 H_18151 102.947 61.823 -8.522 H 1 NIL_1    0.000
122 H_18152 101.826 61.551 -9.863 H 1 NIL_1    0.000
123 H_18811 97.166 66.641 -16.074 H 1 NIL_1    0.000
124 H_18812 95.991 66.015 -17.270 H 1 NIL_1    0.000
125 H_18813 97.507 66.789 -17.821 H 1 NIL_1    0.000
126 H_18251 98.673 58.496 -12.351 H 1 NIL_1    0.000
127 H_18252 99.907 59.156 -13.465 H 1 NIL_1    0.000
128 H_18781 95.244 69.278 -8.088 H 1 NIL_1    0.000
129 H_18782 95.410 69.866 -9.768 H 1 NIL_1    0.000
130 H_18783 96.721 70.163 -8.585 H 1 NIL_1    0.000
131 HP 101.772 63.668 -7.736 H 1 NIL_1    0.000
132 H_18131 102.810 65.338 -10.601 H 1 NIL_1    0.000
133 H_18132 101.777 64.232 -11.545 H 1 NIL_1    0.000
134 H_18271 96.899 61.115 -15.023 H 1 NIL_1    0.000
135 H_18272 98.626 60.965 -15.404 H 1 NIL_1    0.000
136 H_18791 97.597 62.885 -16.519 H 1 NIL_1    0.000
137 H_18792 96.062 63.774 -16.501 H 1 NIL_1    0.000
138 HP 97.354 61.994 -12.880 H 1 NIL_1    0.000
139 H_2210 96.772 73.266 -16.074 H 1 NIL_1    0.000
140 H_2206 100.488 75.242 -16.116 H 1 NIL_1    0.000
141 H_18761 97.433 66.572 -8.449 H 1 NIL_1    0.000
142 H_18762 97.240 67.939 -7.344 H 1 NIL_1    0.000
143 H_18721 96.940 65.090 -14.492 H 1 NIL_1    0.000
144 H_18722 96.600 63.403 -14.197 H 1 NIL_1    0.000
145 H_2212 97.804 71.314 -16.954 H 1 NIL_1    0.000
146 H_2204 101.519 73.264 -17.000 H 1 NIL_1    0.000
147 H_18711 99.024 69.206 -8.520 H 1 NIL_1    0.000
148 H_18712 99.644 67.681 -7.968 H 1 NIL_1    0.000
149 H_18291 101.398 67.233 -9.680 H 1 NIL_1    0.000
150 H_18292 100.758 66.522 -11.144 H 1 NIL_1    0.000
151 H_18401 99.285 65.624 -15.238 H 1 NIL_1    0.000
152 H_18402 100.531 64.902 -14.221 H 1 NIL_1    0.000
153 H_18681 99.673 70.250 -18.033 H 1 NIL_1    0.000
154 H_18682 101.199 71.131 -18.224 H 1 NIL_1    0.000
155 HP 98.549 68.828 -13.067 H 1 NIL_1    0.000
156 H_18181 100.077 70.614 -13.083 H 1 NIL_1    0.000
157 H_18182 101.334 69.662 -12.262 H 1 NIL_1    0.000
158 H_18161 100.885 67.068 -15.093 H 1 NIL_1    0.000
159 H_18162 101.929 67.217 -13.659 H 1 NIL_1    0.000
160 HH 104.454 64.182 -8.743 H 1 NIL_1    0.000
161 HH 96.048 59.301 -13.006 H 1 NIL_1    0.000
162 HH 103.148 69.575 -14.205 H 1 NIL_1    0.000
@<TRIPOS>BOND
1 1 2 1 
2 3 1 1 
3 4 1 1 
4 5 10 1 
5 5 1 1 
6 5 162 1 
7 6 2 1 
8 7 3 1 
9 7 6 1 
10 7 155 1 
11 8 4 1 
12 9 4 2 
13 10 8 1 
14 11 6 1 
15 12 7 1 
16 13 8 1 
17 13 153 1 
18 13 154 1 
19 14 10 2 
20 15 11 2 
21 16 20 1 
22 16 11 1 
23 16 151 1 
24 16 152 1 
25 17 12 2 
26 18 12 1 
27 19 13 1 
28 20 25 1 
29 21 18 1 
30 21 27 1 
31 21 149 1 
32 21 150 1 
33 22 18 1 
34 22 28 1 
35 22 147 1 
36 22 148 1 
37 23 19 2 
38 23 146 1 
39 24 30 2 
40 24 19 1 
41 24 145 1 
42 25 31 1 
43 26 20 1 
44 26 33 1 
45 26 143 1 
46 26 144 1 
47 27 35 1 
48 28 141 1 
49 28 142 1 
50 29 23 1 
51 29 140 1 
52 30 37 1 
53 30 139 1 
54 31 138 1 
55 32 25 2 
56 33 136 1 
57 33 137 1 
58 34 27 2 
59 36 28 1 
60 37 29 2 
61 38 45 1 
62 38 31 1 
63 38 134 1 
64 38 135 1 
65 39 46 1 
66 39 31 1 
67 39 47 1 
68 40 33 1 
69 41 35 1 
70 41 49 1 
71 41 132 1 
72 41 133 1 
73 42 51 1 
74 42 35 1 
75 42 131 1 
76 43 36 1 
77 43 128 1 
78 43 129 1 
79 43 130 1 
80 44 37 1 
81 45 46 1 
82 46 126 1 
83 46 127 1 
84 48 40 1 
85 48 123 1 
86 48 124 1 
87 48 125 1 
88 50 42 1 
89 50 59 2 
90 51 49 1 
91 52 44 1 
92 52 118 1 
93 52 119 1 
94 52 120 1 
95 53 45 1 
96 54 63 1 
97 54 45 1 
98 54 161 1 
99 55 47 2 
100 56 60 1 
101 56 47 1 
102 56 116 1 
103 56 117 1 
104 57 49 1 
105 58 66 1 
106 58 49 1 
107 58 160 1 
108 60 50 1 
109 61 53 1 
110 62 53 2 
111 63 61 1 
112 64 57 1 
113 65 57 2 
114 66 64 1 
115 67 60 1 
116 67 72 1 
117 67 114 1 
118 67 115 1 
119 68 61 1 
120 68 112 1 
121 68 113 1 
122 69 63 2 
123 70 64 1 
124 70 74 1 
125 71 66 2 
126 73 68 1 
127 73 76 2 
128 73 77 1 
129 74 78 1 
130 75 72 1 
131 77 82 2 
132 79 84 1 
133 79 74 2 
134 79 104 1 
135 80 75 1 
136 81 76 1 
137 82 85 1 
138 83 78 2 
139 84 86 2 
140 84 97 1 
141 85 81 2 
142 86 88 1 
143 86 83 1 
144 87 85 1 
145 89 87 1 
146 89 96 1 
147 90 88 1 
148 91 90 1 
149 92 90 1 
150 93 90 1 
151 94 89 1 
152 95 89 1 
153 98 83 1 
154 99 82 1 
155 100 81 1 
156 101 80 1 
157 102 80 1 
158 103 80 1 
159 105 78 1 
160 106 77 1 
161 107 76 1 
162 108 72 1 
163 109 72 1 
164 110 70 1 
165 111 70 1 
166 121 51 1 
167 122 51 1 
168 156 3 1 
169 157 3 1 
170 158 2 1 
171 159 2 1 
@<TRIPOS>SUBSTRUCTURE
1 NIL_1 1 RESIDUE 1 A NIL 1
