@<TRIPOS>MOLECULE
NIL
162 171 1 0 0
POLYMER
CHARGES


@<TRIPOS>ATOM
1 CQ 103.978 72.978 -11.7562 C.3 1 NIL_1    0.000
2 C_1816 103.163 71.810 -12.324 C.3 1 NIL_1    0.000
3 C_1818 105.411 72.437 -11.651 C.3 1 NIL_1    0.000
4 C_1854 103.443 73.442 -10.420 C.2 1 NIL_1    0.000
5 NH 103.854 74.217 -12.502 N.am 1 NIL_1    0.000
6 N 103.852 70.580 -11.912 N.am 1 NIL_1    0.000
7 CP 105.247 70.908 -11.520 C.3 1 NIL_1    0.000
8 N 103.110 74.752 -10.527 N.am 1 NIL_1    0.000
9 O 103.341 72.763 -9.416 O.2 1 NIL_1    0.000
10 C_1856 103.364 75.233 -11.771 C.2 1 NIL_1    0.000
11 C_1841 103.234 69.369 -11.835 C.2 1 NIL_1    0.000
12 C_1838 106.303 70.220 -12.386 C.2 1 NIL_1    0.000
13 C_1868 102.623 75.549 -9.380 C.3 1 NIL_1    0.000
14 O 103.205 76.366 -12.177 O.2 1 NIL_1    0.000
15 O 102.098 69.213 -12.238 O.2 1 NIL_1    0.000
16 C_1840 104.012 68.215 -11.218 C.3 1 NIL_1    0.000
17 O 106.111 70.112 -13.583 O.2 1 NIL_1    0.000
18 N 107.478 69.796 -11.825 N.am 1 NIL_1    0.000
19 C_1869 101.763 76.774 -9.636 C.2 1 NIL_1    0.000
20 N 103.248 67.307 -10.330 N.am 1 NIL_1    0.000
21 C_1829 107.764 69.657 -10.375 C.3 1 NIL_1    0.000
22 C_1871 108.595 69.275 -12.642 C.3 1 NIL_1    0.000
23 C_2204 100.442 76.658 -9.814 C.2 1 NIL_1    0.000
24 C_2212 102.307 77.995 -9.660 C.2 1 NIL_1    0.000
25 C_1843 103.325 65.940 -10.443 C.2 1 NIL_1    0.000
26 C_1872 102.561 68.050 -9.233 C.3 1 NIL_1    0.000
27 C_1830 107.364 68.290 -9.830 C.2 1 NIL_1    0.000
28 C_1876 109.674 70.336 -12.931 C.3 1 NIL_1    0.000
29 C_2206 99.685 77.739 -10.010 C.2 1 NIL_1    0.000
30 C_2210 101.553 79.077 -9.861 C.2 1 NIL_1    0.000
31 AP 102.598 65.087 -9.403 C.3 1 NIL_1    0.000
32 O 103.927 65.419 -11.363 O.2 1 NIL_1    0.000
33 C_1879 103.449 68.426 -8.030 C.3 1 NIL_1    0.000
34 O 106.830 67.468 -10.547 O.2 1 NIL_1    0.000
35 N 107.630 68.027 -8.520 N.am 1 NIL_1    0.000
36 O 109.126 71.385 -13.758 O.3 1 NIL_1    0.000
37 C_2208 100.230 78.958 -10.040 C.2 1 NIL_1    0.000
38 C_1827 101.064 65.181 -9.595 C.3 1 NIL_1    0.000
39 N 102.933 63.636 -9.324 N.am 1 NIL_1    0.000
40 O 104.281 69.556 -8.365 O.3 1 NIL_1    0.000
41 C_1813 108.425 68.888 -7.628 C.3 1 NIL_1    0.000
42 BP 107.067 66.913 -7.720 C.3 1 NIL_1    0.000
43 C_1878 110.079 72.416 -14.093 C.3 1 NIL_1    0.000
44 O 99.400 80.031 -10.224 O.3 1 NIL_1    0.000
45 AQ 100.591 63.765 -9.913 C.3 1 NIL_1    0.000
46 C_1825 101.675 62.868 -9.323 C.3 1 NIL_1    0.000
47 C_1844 104.127 62.998 -9.132 C.2 1 NIL_1    0.000
48 C_1881 105.001 70.144 -7.260 C.3 1 NIL_1    0.000
49 BQ 108.672 68.103 -6.324 C.3 1 NIL_1    0.000
50 C_1833 106.882 65.579 -8.436 C.2 1 NIL_1    0.000
51 C_1815 107.987 66.744 -6.502 C.3 1 NIL_1    0.000
52 C_2271 99.872 81.125 -11.049 C.3 1 NIL_1    0.000
53 C_1846 100.428 63.519 -11.395 C.2 1 NIL_1    0.000
54 NH 99.241 63.468 -9.468 N.am 1 NIL_1    0.000
55 O 104.146 61.791 -8.982 O.2 1 NIL_1    0.000
56 C_1835 105.464 63.723 -9.110 C.3 1 NIL_1    0.000
57 C_1850 110.133 67.910 -6.008 C.2 1 NIL_1    0.000
58 NH 108.253 68.775 -5.103 N.am 1 NIL_1    0.000
59 O 107.724 65.188 -9.224 O.2 1 NIL_1    0.000
60 N 105.763 64.836 -8.175 N.am 1 NIL_1    0.000
61 N 99.145 63.145 -11.615 N.am 1 NIL_1    0.000
62 O 101.297 63.614 -12.240 O.2 1 NIL_1    0.000
63 C_1848 98.420 63.118 -10.471 C.2 1 NIL_1    0.000
64 N 110.334 68.271 -4.719 N.am 1 NIL_1    0.000
65 O 110.976 67.488 -6.777 O.2 1 NIL_1    0.000
66 C_1852 109.216 68.799 -4.165 C.2 1 NIL_1    0.000
67 C_1870 105.010 64.930 -6.889 C.3 1 NIL_1    0.000
68 C_1866 98.621 62.729 -12.927 C.3 1 NIL_1    0.000
69 O 97.247 62.828 -10.351 O.2 1 NIL_1    0.000
70 C_1864 111.602 68.071 -3.993 C.3 1 NIL_1    0.000
71 O 109.086 69.218 -3.032 O.2 1 NIL_1    0.000
72 C_1873 104.627 63.611 -6.168 C.3 1 NIL_1    0.000
73 C_1867 98.631 63.829 -13.969 C.2 1 NIL_1    0.000
74 C_1865 112.185 66.683 -4.195 C.2 1 NIL_1    0.000
75 O 103.199 63.354 -6.251 O.3 1 NIL_1    0.000
76 C_2172 99.533 63.822 -14.954 C.2 1 NIL_1    0.000
77 C_2180 97.732 64.816 -13.928 C.2 1 NIL_1    0.000
78 C_2196 113.336 66.521 -4.853 C.2 1 NIL_1    0.000
79 C_2188 111.545 65.598 -3.747 C.2 1 NIL_1    0.000
80 C_1875 102.329 64.198 -5.457 C.3 1 NIL_1    0.000
81 C_2174 99.537 64.783 -15.877 C.2 1 NIL_1    0.000
82 C_2178 97.733 65.779 -14.851 C.2 1 NIL_1    0.000
83 C_2194 113.835 65.303 -5.058 C.2 1 NIL_1    0.000
84 C_2190 112.043 64.377 -3.951 C.2 1 NIL_1    0.000
85 C_2176 98.638 65.771 -15.842 C.2 1 NIL_1    0.000
86 C_2192 113.198 64.216 -4.615 C.2 1 NIL_1    0.000
87 O 98.706 66.718 -16.834 O.3 1 NIL_1    0.000
88 O 113.781 62.999 -4.873 O.3 1 NIL_1    0.000
89 C_2273 97.749 67.804 -16.866 C.3 1 NIL_1    0.000
90 C_2269 113.068 61.775 -4.574 C.3 1 NIL_1    0.000
91 H_22691 113.681 60.929 -4.894 H 1 NIL_1    0.000
92 H_22692 112.120 61.761 -5.119 H 1 NIL_1    0.000
93 H_22693 112.889 61.705 -3.498 H 1 NIL_1    0.000
94 H_22731 96.737 67.402 -16.968 H 1 NIL_1    0.000
95 H_22732 97.971 68.441 -17.726 H 1 NIL_1    0.000
96 H_22733 97.833 68.394 -15.950 H 1 NIL_1    0.000
97 H_2190 111.487 63.523 -3.572 H 1 NIL_1    0.000
98 H_2194 114.771 65.197 -5.603 H 1 NIL_1    0.000
99 H_2178 96.981 66.559 -14.778 H 1 NIL_1    0.000
100 H_2174 100.281 64.755 -16.670 H 1 NIL_1    0.000
101 H_18751 101.299 63.847 -5.567 H 1 NIL_1    0.000
102 H_18752 102.393 65.231 -5.804 H 1 NIL_1    0.000
103 H_18753 102.618 64.139 -4.405 H 1 NIL_1    0.000
104 H_2188 110.603 65.706 -3.213 H 1 NIL_1    0.000
105 H_2196 113.871 67.387 -5.235 H 1 NIL_1    0.000
106 H_2180 96.988 64.838 -13.134 H 1 NIL_1    0.000
107 H_2172 100.274 63.027 -15.008 H 1 NIL_1    0.000
108 H_18731 105.165 62.762 -6.594 H 1 NIL_1    0.000
109 H_18732 104.894 63.685 -5.110 H 1 NIL_1    0.000
110 H_18641 111.437 68.234 -2.924 H 1 NIL_1    0.000
111 H_18642 112.307 68.832 -4.340 H 1 NIL_1    0.000
112 H_18661 97.596 62.363 -12.806 H 1 NIL_1    0.000
113 H_18662 99.224 61.885 -13.274 H 1 NIL_1    0.000
114 H_18701 104.137 65.561 -7.016 H 1 NIL_1    0.000
115 H_18702 105.640 65.451 -6.172 H 1 NIL_1    0.000
116 H_18351 106.222 62.953 -8.944 H 1 NIL_1    0.000
117 H_18352 105.612 64.090 -10.128 H 1 NIL_1    0.000
118 H_22711 99.054 81.839 -11.178 H 1 NIL_1    0.000
119 H_22712 100.175 80.737 -12.025 H 1 NIL_1    0.000
120 H_22713 100.711 81.629 -10.564 H 1 NIL_1    0.000
121 H_18151 107.433 66.450 -5.606 H 1 NIL_1    0.000
122 H_18152 108.729 65.968 -6.706 H 1 NIL_1    0.000
123 H_18811 105.659 70.927 -7.645 H 1 NIL_1    0.000
124 H_18812 105.596 69.379 -6.758 H 1 NIL_1    0.000
125 H_18813 104.293 70.584 -6.552 H 1 NIL_1    0.000
126 H_18251 101.423 62.615 -8.289 H 1 NIL_1    0.000
127 H_18252 101.775 61.948 -9.907 H 1 NIL_1    0.000
128 H_18781 110.914 71.973 -14.643 H 1 NIL_1    0.000
129 H_18782 110.448 72.876 -13.171 H 1 NIL_1    0.000
130 H_18783 109.594 73.175 -14.712 H 1 NIL_1    0.000
131 HP 106.089 67.251 -7.375 H 1 NIL_1    0.000
132 H_18131 107.869 69.807 -7.422 H 1 NIL_1    0.000
133 H_18132 109.374 69.143 -8.108 H 1 NIL_1    0.000
134 H_18271 100.618 65.503 -8.649 H 1 NIL_1    0.000
135 H_18272 100.764 65.891 -10.373 H 1 NIL_1    0.000
136 H_18791 102.810 68.713 -7.193 H 1 NIL_1    0.000
137 H_18792 104.070 67.582 -7.730 H 1 NIL_1    0.000
138 HP 102.821 65.532 -8.440 H 1 NIL_1    0.000
139 H_2210 102.031 80.053 -9.863 H 1 NIL_1    0.000
140 H_2206 98.611 77.623 -10.143 H 1 NIL_1    0.000
141 H_18761 110.034 70.770 -11.995 H 1 NIL_1    0.000
142 H_18762 110.509 69.871 -13.463 H 1 NIL_1    0.000
143 H_18721 101.728 67.469 -8.847 H 1 NIL_1    0.000
144 H_18722 102.114 68.966 -9.623 H 1 NIL_1    0.000
145 H_2212 103.378 78.113 -9.510 H 1 NIL_1    0.000
146 H_2204 99.974 75.677 -9.790 H 1 NIL_1    0.000
147 H_18711 108.218 68.875 -13.589 H 1 NIL_1    0.000
148 H_18712 109.067 68.442 -12.111 H 1 NIL_1    0.000
149 H_18291 107.257 70.428 -9.791 H 1 NIL_1    0.000
150 H_18292 108.839 69.769 -10.207 H 1 NIL_1    0.000
151 H_18401 104.481 67.670 -12.041 H 1 NIL_1    0.000
152 H_18402 104.794 68.642 -10.604 H 1 NIL_1    0.000
153 H_18681 103.504 75.857 -8.810 H 1 NIL_1    0.000
154 H_18682 102.051 74.878 -8.734 H 1 NIL_1    0.000
155 HP 105.367 70.632 -10.473 H 1 NIL_1    0.000
156 H_18181 105.955 72.859 -10.802 H 1 NIL_1    0.000
157 H_18182 105.957 72.686 -12.566 H 1 NIL_1    0.000
158 H_18161 102.136 71.829 -11.947 H 1 NIL_1    0.000
159 H_18162 103.155 71.851 -13.417 H 1 NIL_1    0.000
160 HH 107.302 69.073 -4.943 H 1 NIL_1    0.000
161 HH 98.961 63.525 -8.501 H 1 NIL_1    0.000
162 HH 104.144 74.301 -13.465 H 1 NIL_1    0.000
@<TRIPOS>BOND
1 1 2 1 
2 3 1 1 
3 4 1 1 
4 5 10 1 
5 5 1 1 
6 5 162 1 
7 6 2 1 
8 7 3 1 
9 7 6 1 
10 7 155 1 
11 8 4 1 
12 9 4 2 
13 10 8 1 
14 11 6 1 
15 12 7 1 
16 13 8 1 
17 13 153 1 
18 13 154 1 
19 14 10 2 
20 15 11 2 
21 16 20 1 
22 16 11 1 
23 16 151 1 
24 16 152 1 
25 17 12 2 
26 18 12 1 
27 19 13 1 
28 20 25 1 
29 21 18 1 
30 21 27 1 
31 21 149 1 
32 21 150 1 
33 22 18 1 
34 22 28 1 
35 22 147 1 
36 22 148 1 
37 23 19 2 
38 23 146 1 
39 24 30 2 
40 24 19 1 
41 24 145 1 
42 25 31 1 
43 26 20 1 
44 26 33 1 
45 26 143 1 
46 26 144 1 
47 27 35 1 
48 28 141 1 
49 28 142 1 
50 29 23 1 
51 29 140 1 
52 30 37 1 
53 30 139 1 
54 31 138 1 
55 32 25 2 
56 33 136 1 
57 33 137 1 
58 34 27 2 
59 36 28 1 
60 37 29 2 
61 38 45 1 
62 38 31 1 
63 38 134 1 
64 38 135 1 
65 39 46 1 
66 39 31 1 
67 39 47 1 
68 40 33 1 
69 41 35 1 
70 41 49 1 
71 41 132 1 
72 41 133 1 
73 42 51 1 
74 42 35 1 
75 42 131 1 
76 43 36 1 
77 43 128 1 
78 43 129 1 
79 43 130 1 
80 44 37 1 
81 45 46 1 
82 46 126 1 
83 46 127 1 
84 48 40 1 
85 48 123 1 
86 48 124 1 
87 48 125 1 
88 50 42 1 
89 50 59 2 
90 51 49 1 
91 52 44 1 
92 52 118 1 
93 52 119 1 
94 52 120 1 
95 53 45 1 
96 54 63 1 
97 54 45 1 
98 54 161 1 
99 55 47 2 
100 56 60 1 
101 56 47 1 
102 56 116 1 
103 56 117 1 
104 57 49 1 
105 58 66 1 
106 58 49 1 
107 58 160 1 
108 60 50 1 
109 61 53 1 
110 62 53 2 
111 63 61 1 
112 64 57 1 
113 65 57 2 
114 66 64 1 
115 67 60 1 
116 67 72 1 
117 67 114 1 
118 67 115 1 
119 68 61 1 
120 68 112 1 
121 68 113 1 
122 69 63 2 
123 70 64 1 
124 70 74 1 
125 71 66 2 
126 73 68 1 
127 73 76 2 
128 73 77 1 
129 74 78 1 
130 75 72 1 
131 77 82 2 
132 79 84 1 
133 79 74 2 
134 79 104 1 
135 80 75 1 
136 81 76 1 
137 82 85 1 
138 83 78 2 
139 84 86 2 
140 84 97 1 
141 85 81 2 
142 86 88 1 
143 86 83 1 
144 87 85 1 
145 89 87 1 
146 89 96 1 
147 90 88 1 
148 91 90 1 
149 92 90 1 
150 93 90 1 
151 94 89 1 
152 95 89 1 
153 98 83 1 
154 99 82 1 
155 100 81 1 
156 101 80 1 
157 102 80 1 
158 103 80 1 
159 105 78 1 
160 106 77 1 
161 107 76 1 
162 108 72 1 
163 109 72 1 
164 110 70 1 
165 111 70 1 
166 121 51 1 
167 122 51 1 
168 156 3 1 
169 157 3 1 
170 158 2 1 
171 159 2 1 
@<TRIPOS>SUBSTRUCTURE
1 NIL_1 1 RESIDUE 1 A NIL 1
