@<TRIPOS>MOLECULE
NIL
162 171 1 0 0
POLYMER
CHARGES


@<TRIPOS>ATOM
1 CQ 95.1736 64.7943 -19.7644 C.3 1 NIL_1    0.000
2 C_1816 94.905 63.415 -20.396 C.3 1 NIL_1    0.000
3 C_1818 95.905 64.507 -18.434 C.3 1 NIL_1    0.000
4 C_1854 93.903 65.589 -19.568 C.2 1 NIL_1    0.000
5 NH 95.880 65.701 -20.656 N.am 1 NIL_1    0.000
6 N 95.293 62.415 -19.392 N.am 1 NIL_1    0.000
7 CP 96.336 63.031 -18.537 C.3 1 NIL_1    0.000
8 N 93.996 66.721 -20.302 N.am 1 NIL_1    0.000
9 O 92.960 65.274 -18.867 O.2 1 NIL_1    0.000
10 C_1856 95.176 66.802 -20.962 C.2 1 NIL_1    0.000
11 C_1841 94.464 61.387 -19.059 C.2 1 NIL_1    0.000
12 C_1838 97.743 62.943 -19.137 C.2 1 NIL_1    0.000
13 C_1868 92.965 67.771 -20.316 C.3 1 NIL_1    0.000
14 O 95.550 67.698 -21.692 O.2 1 NIL_1    0.000
15 O 93.588 61.007 -19.815 O.2 1 NIL_1    0.000
16 C_1840 94.700 60.728 -17.716 C.3 1 NIL_1    0.000
17 O 97.994 63.515 -20.182 O.2 1 NIL_1    0.000
18 N 98.740 62.274 -18.478 N.am 1 NIL_1    0.000
19 C_1869 93.240 68.759 -19.201 C.2 1 NIL_1    0.000
20 N 93.660 59.797 -17.236 N.am 1 NIL_1    0.000
21 C_1829 98.566 61.385 -17.289 C.3 1 NIL_1    0.000
22 C_1871 100.156 62.606 -18.792 C.3 1 NIL_1    0.000
23 C_2204 94.147 69.726 -19.358 C.2 1 NIL_1    0.000
24 C_2212 92.597 68.664 -18.033 C.2 1 NIL_1    0.000
25 C_1843 94.013 58.546 -16.836 C.2 1 NIL_1    0.000
26 C_1872 92.368 60.453 -16.924 C.3 1 NIL_1    0.000
27 C_1830 99.511 60.182 -17.208 C.2 1 NIL_1    0.000
28 C_1876 100.721 61.962 -20.087 C.3 1 NIL_1    0.000
29 C_2206 94.426 70.569 -18.364 C.2 1 NIL_1    0.000
30 C_2210 92.871 69.509 -17.037 C.2 1 NIL_1    0.000
31 AP 93.233 57.902 -15.695 C.3 1 NIL_1    0.000
32 O 94.958 57.977 -17.347 O.2 1 NIL_1    0.000
33 C_1879 92.413 61.416 -15.721 C.3 1 NIL_1    0.000
34 O 100.046 59.725 -18.200 O.2 1 NIL_1    0.000
35 N 99.731 59.578 -16.008 N.am 1 NIL_1    0.000
36 O 99.760 61.058 -20.685 O.3 1 NIL_1    0.000
37 C_2208 93.796 70.461 -17.186 C.2 1 NIL_1    0.000
38 C_1827 92.158 56.941 -16.226 C.3 1 NIL_1    0.000
39 N 94.119 57.124 -14.808 N.am 1 NIL_1    0.000
40 O 91.083 61.932 -15.505 O.3 1 NIL_1    0.000
41 C_1813 100.726 58.503 -15.853 C.3 1 NIL_1    0.000
42 BP 99.005 59.779 -14.727 C.3 1 NIL_1    0.000
43 C_1878 100.201 60.370 -21.870 C.3 1 NIL_1    0.000
44 O 94.055 71.286 -16.123 O.3 1 NIL_1    0.000
45 AQ 92.761 55.535 -16.073 C.3 1 NIL_1    0.000
46 C_1825 93.866 55.684 -15.006 C.3 1 NIL_1    0.000
47 C_1844 95.090 57.627 -13.992 C.2 1 NIL_1    0.000
48 C_1881 90.966 62.877 -14.423 C.3 1 NIL_1    0.000
49 BQ 100.535 57.880 -14.469 C.3 1 NIL_1    0.000
50 C_1833 97.540 59.336 -14.818 C.2 1 NIL_1    0.000
51 C_1815 99.788 58.954 -13.674 C.3 1 NIL_1    0.000
52 C_2271 95.416 71.752 -15.951 C.3 1 NIL_1    0.000
53 C_1846 93.247 54.995 -17.402 C.2 1 NIL_1    0.000
54 NH 91.743 54.536 -15.784 N.am 1 NIL_1    0.000
55 O 95.811 56.879 -13.357 O.2 1 NIL_1    0.000
56 C_1835 95.251 59.145 -13.873 C.3 1 NIL_1    0.000
57 C_1850 99.791 56.569 -14.577 C.2 1 NIL_1    0.000
58 NH 101.763 57.397 -13.856 N.am 1 NIL_1    0.000
59 O 97.158 58.750 -15.811 O.2 1 NIL_1    0.000
60 N 96.667 59.582 -13.792 N.am 1 NIL_1    0.000
61 N 92.419 53.994 -17.774 N.am 1 NIL_1    0.000
62 O 94.199 55.382 -18.049 O.2 1 NIL_1    0.000
63 C_1848 91.511 53.705 -16.813 C.2 1 NIL_1    0.000
64 N 100.602 55.579 -14.137 N.am 1 NIL_1    0.000
65 O 98.669 56.405 -15.015 O.2 1 NIL_1    0.000
66 C_1852 101.796 56.061 -13.707 C.2 1 NIL_1    0.000
67 C_1870 96.965 60.333 -12.550 C.3 1 NIL_1    0.000
68 C_1866 92.389 53.435 -19.136 C.3 1 NIL_1    0.000
69 O 90.628 52.873 -16.864 O.2 1 NIL_1    0.000
70 C_1864 100.235 54.158 -14.272 C.3 1 NIL_1    0.000
71 O 102.741 55.432 -13.276 O.2 1 NIL_1    0.000
72 C_1873 97.123 59.437 -11.300 C.3 1 NIL_1    0.000
73 C_1867 91.788 54.476 -20.063 C.2 1 NIL_1    0.000
74 C_1865 101.002 53.089 -13.517 C.2 1 NIL_1    0.000
75 O 95.834 59.131 -10.724 O.3 1 NIL_1    0.000
76 C_2172 92.542 55.086 -20.981 C.2 1 NIL_1    0.000
77 C_2180 90.502 54.828 -19.955 C.2 1 NIL_1    0.000
78 C_2196 100.931 53.000 -12.185 C.2 1 NIL_1    0.000
79 C_2188 101.742 52.197 -14.182 C.2 1 NIL_1    0.000
80 C_1875 95.885 58.217 -9.606 C.3 1 NIL_1    0.000
81 C_2174 92.023 56.024 -21.773 C.2 1 NIL_1    0.000
82 C_2178 89.981 55.768 -20.744 C.2 1 NIL_1    0.000
83 C_2194 101.584 52.035 -11.534 C.2 1 NIL_1    0.000
84 C_2190 102.394 51.231 -13.535 C.2 1 NIL_1    0.000
85 C_2176 90.739 56.378 -21.667 C.2 1 NIL_1    0.000
86 C_2192 102.321 51.144 -12.201 C.2 1 NIL_1    0.000
87 O 90.281 57.352 -22.521 O.3 1 NIL_1    0.000
88 O 102.947 50.155 -11.493 O.3 1 NIL_1    0.000
89 C_2273 88.939 57.871 -22.368 C.3 1 NIL_1    0.000
90 C_2269 104.339 49.907 -11.803 C.3 1 NIL_1    0.000
91 H_22691 104.910 50.830 -11.676 H 1 NIL_1    0.000
92 H_22692 104.438 49.542 -12.828 H 1 NIL_1    0.000
93 H_22693 104.719 49.147 -11.116 H 1 NIL_1    0.000
94 H_22731 88.827 58.296 -21.367 H 1 NIL_1    0.000
95 H_22732 88.211 57.070 -22.523 H 1 NIL_1    0.000
96 H_22733 88.779 58.652 -23.115 H 1 NIL_1    0.000
97 H_2190 102.971 50.513 -14.111 H 1 NIL_1    0.000
98 H_2194 101.510 51.973 -10.450 H 1 NIL_1    0.000
99 H_2178 88.933 56.022 -20.612 H 1 NIL_1    0.000
100 H_2174 92.657 56.509 -22.511 H 1 NIL_1    0.000
101 H_18751 96.273 57.250 -9.944 H 1 NIL_1    0.000
102 H_18752 94.876 58.086 -9.205 H 1 NIL_1    0.000
103 H_18753 96.537 58.626 -8.830 H 1 NIL_1    0.000
104 H_2188 101.809 52.248 -15.266 H 1 NIL_1    0.000
105 H_2196 100.335 53.715 -11.623 H 1 NIL_1    0.000
106 H_2180 89.867 54.353 -19.211 H 1 NIL_1    0.000
107 H_2172 93.593 54.823 -21.083 H 1 NIL_1    0.000
108 H_18731 97.617 58.500 -11.554 H 1 NIL_1    0.000
109 H_18732 97.715 59.965 -10.547 H 1 NIL_1    0.000
110 H_18641 100.289 53.933 -15.341 H 1 NIL_1    0.000
111 H_18642 99.183 54.060 -13.989 H 1 NIL_1    0.000
112 H_18661 91.790 52.520 -19.149 H 1 NIL_1    0.000
113 H_18662 93.409 53.184 -19.446 H 1 NIL_1    0.000
114 H_18701 96.169 61.063 -12.372 H 1 NIL_1    0.000
115 H_18702 97.884 60.904 -12.680 H 1 NIL_1    0.000
116 H_18351 94.812 59.646 -14.735 H 1 NIL_1    0.000
117 H_18352 94.689 59.456 -12.990 H 1 NIL_1    0.000
118 H_22711 95.501 72.230 -14.972 H 1 NIL_1    0.000
119 H_22712 95.661 72.480 -16.729 H 1 NIL_1    0.000
120 H_22713 96.103 70.901 -16.000 H 1 NIL_1    0.000
121 H_18151 100.508 59.608 -13.174 H 1 NIL_1    0.000
122 H_18152 99.159 58.499 -12.915 H 1 NIL_1    0.000
123 H_18811 89.938 63.245 -14.384 H 1 NIL_1    0.000
124 H_18812 91.646 63.715 -14.599 H 1 NIL_1    0.000
125 H_18813 91.220 62.383 -13.481 H 1 NIL_1    0.000
126 H_18251 93.531 55.258 -14.056 H 1 NIL_1    0.000
127 H_18252 94.787 55.184 -15.321 H 1 NIL_1    0.000
128 H_18781 100.470 61.105 -22.633 H 1 NIL_1    0.000
129 H_18782 99.383 59.743 -22.235 H 1 NIL_1    0.000
130 H_18783 101.063 59.741 -21.631 H 1 NIL_1    0.000
131 HP 99.024 60.840 -14.466 H 1 NIL_1    0.000
132 H_18131 101.723 58.944 -15.931 H 1 NIL_1    0.000
133 H_18132 100.606 57.746 -16.635 H 1 NIL_1    0.000
134 H_18271 91.270 57.029 -15.594 H 1 NIL_1    0.000
135 H_18272 91.863 57.161 -17.257 H 1 NIL_1    0.000
136 H_18791 92.745 60.898 -14.818 H 1 NIL_1    0.000
137 H_18792 93.079 62.256 -15.931 H 1 NIL_1    0.000
138 HP 92.756 58.685 -15.102 H 1 NIL_1    0.000
139 H_2210 92.345 69.409 -16.090 H 1 NIL_1    0.000
140 H_2206 95.173 71.337 -18.534 H 1 NIL_1    0.000
141 H_18761 100.953 62.747 -20.813 H 1 NIL_1    0.000
142 H_18762 101.638 61.410 -19.857 H 1 NIL_1    0.000
143 H_18721 91.614 59.687 -16.733 H 1 NIL_1    0.000
144 H_18722 92.037 61.012 -17.800 H 1 NIL_1    0.000
145 H_2212 91.851 67.886 -17.882 H 1 NIL_1    0.000
146 H_2204 94.678 69.830 -20.302 H 1 NIL_1    0.000
147 H_18711 100.800 62.335 -17.951 H 1 NIL_1    0.000
148 H_18712 100.228 63.692 -18.898 H 1 NIL_1    0.000
149 H_18291 97.563 60.959 -17.297 H 1 NIL_1    0.000
150 H_18292 98.683 61.981 -16.383 H 1 NIL_1    0.000
151 H_18401 95.661 60.218 -17.792 H 1 NIL_1    0.000
152 H_18402 94.795 61.515 -16.968 H 1 NIL_1    0.000
153 H_18681 91.982 67.312 -20.183 H 1 NIL_1    0.000
154 H_18682 92.973 68.277 -21.285 H 1 NIL_1    0.000
155 HP 96.356 62.624 -17.529 H 1 NIL_1    0.000
156 H_18181 95.213 64.609 -17.594 H 1 NIL_1    0.000
157 H_18182 96.748 65.181 -18.256 H 1 NIL_1    0.000
158 H_18161 93.849 63.320 -20.662 H 1 NIL_1    0.000
159 H_18162 95.516 63.268 -21.291 H 1 NIL_1    0.000
160 HH 102.526 58.010 -13.612 H 1 NIL_1    0.000
161 HH 91.178 54.564 -14.948 H 1 NIL_1    0.000
162 HH 96.807 65.507 -21.004 H 1 NIL_1    0.000
@<TRIPOS>BOND
1 1 2 1 
2 3 1 1 
3 4 1 1 
4 5 10 1 
5 5 1 1 
6 5 162 1 
7 6 2 1 
8 7 3 1 
9 7 6 1 
10 7 155 1 
11 8 4 1 
12 9 4 2 
13 10 8 1 
14 11 6 1 
15 12 7 1 
16 13 8 1 
17 13 153 1 
18 13 154 1 
19 14 10 2 
20 15 11 2 
21 16 20 1 
22 16 11 1 
23 16 151 1 
24 16 152 1 
25 17 12 2 
26 18 12 1 
27 19 13 1 
28 20 25 1 
29 21 18 1 
30 21 27 1 
31 21 149 1 
32 21 150 1 
33 22 18 1 
34 22 28 1 
35 22 147 1 
36 22 148 1 
37 23 19 2 
38 23 146 1 
39 24 30 2 
40 24 19 1 
41 24 145 1 
42 25 31 1 
43 26 20 1 
44 26 33 1 
45 26 143 1 
46 26 144 1 
47 27 35 1 
48 28 141 1 
49 28 142 1 
50 29 23 1 
51 29 140 1 
52 30 37 1 
53 30 139 1 
54 31 138 1 
55 32 25 2 
56 33 136 1 
57 33 137 1 
58 34 27 2 
59 36 28 1 
60 37 29 2 
61 38 45 1 
62 38 31 1 
63 38 134 1 
64 38 135 1 
65 39 46 1 
66 39 31 1 
67 39 47 1 
68 40 33 1 
69 41 35 1 
70 41 49 1 
71 41 132 1 
72 41 133 1 
73 42 51 1 
74 42 35 1 
75 42 131 1 
76 43 36 1 
77 43 128 1 
78 43 129 1 
79 43 130 1 
80 44 37 1 
81 45 46 1 
82 46 126 1 
83 46 127 1 
84 48 40 1 
85 48 123 1 
86 48 124 1 
87 48 125 1 
88 50 42 1 
89 50 59 2 
90 51 49 1 
91 52 44 1 
92 52 118 1 
93 52 119 1 
94 52 120 1 
95 53 45 1 
96 54 63 1 
97 54 45 1 
98 54 161 1 
99 55 47 2 
100 56 60 1 
101 56 47 1 
102 56 116 1 
103 56 117 1 
104 57 49 1 
105 58 66 1 
106 58 49 1 
107 58 160 1 
108 60 50 1 
109 61 53 1 
110 62 53 2 
111 63 61 1 
112 64 57 1 
113 65 57 2 
114 66 64 1 
115 67 60 1 
116 67 72 1 
117 67 114 1 
118 67 115 1 
119 68 61 1 
120 68 112 1 
121 68 113 1 
122 69 63 2 
123 70 64 1 
124 70 74 1 
125 71 66 2 
126 73 68 1 
127 73 76 2 
128 73 77 1 
129 74 78 1 
130 75 72 1 
131 77 82 2 
132 79 84 1 
133 79 74 2 
134 79 104 1 
135 80 75 1 
136 81 76 1 
137 82 85 1 
138 83 78 2 
139 84 86 2 
140 84 97 1 
141 85 81 2 
142 86 88 1 
143 86 83 1 
144 87 85 1 
145 89 87 1 
146 89 96 1 
147 90 88 1 
148 91 90 1 
149 92 90 1 
150 93 90 1 
151 94 89 1 
152 95 89 1 
153 98 83 1 
154 99 82 1 
155 100 81 1 
156 101 80 1 
157 102 80 1 
158 103 80 1 
159 105 78 1 
160 106 77 1 
161 107 76 1 
162 108 72 1 
163 109 72 1 
164 110 70 1 
165 111 70 1 
166 121 51 1 
167 122 51 1 
168 156 3 1 
169 157 3 1 
170 158 2 1 
171 159 2 1 
@<TRIPOS>SUBSTRUCTURE
1 NIL_1 1 RESIDUE 1 A NIL 1
