@<TRIPOS>MOLECULE
NIL
162 171 1 0 0
POLYMER
CHARGES


@<TRIPOS>ATOM
1 CQ 102.852 73.1884 -11.1805 C.3 1 NIL_1    0.000
2 C_1816 101.992 72.120 -11.865 C.3 1 NIL_1    0.000
3 C_1818 104.177 72.482 -10.834 C.3 1 NIL_1    0.000
4 C_1854 102.138 73.720 -9.961 C.2 1 NIL_1    0.000
5 NH 102.980 74.422 -11.935 N.am 1 NIL_1    0.000
6 N 102.433 70.845 -11.302 N.am 1 NIL_1    0.000
7 CP 103.848 70.972 -10.885 C.3 1 NIL_1    0.000
8 N 101.907 75.042 -10.146 N.am 1 NIL_1    0.000
9 O 101.799 73.072 -8.989 O.2 1 NIL_1    0.000
10 C_1856 102.404 75.477 -11.333 C.2 1 NIL_1    0.000
11 C_1841 101.685 69.709 -11.281 C.2 1 NIL_1    0.000
12 C_1838 104.756 70.259 -11.897 C.2 1 NIL_1    0.000
13 C_1868 101.120 75.834 -9.181 C.3 1 NIL_1    0.000
14 O 102.350 76.599 -11.798 O.2 1 NIL_1    0.000
15 O 100.585 69.656 -11.799 O.2 1 NIL_1    0.000
16 C_1840 102.319 68.530 -10.567 C.3 1 NIL_1    0.000
17 O 104.638 70.526 -13.079 O.2 1 NIL_1    0.000
18 N 105.658 69.316 -11.482 N.am 1 NIL_1    0.000
19 C_1869 101.024 77.342 -9.314 C.2 1 NIL_1    0.000
20 N 101.566 67.266 -10.492 N.am 1 NIL_1    0.000
21 C_1829 105.818 68.916 -10.055 C.3 1 NIL_1    0.000
22 C_1871 106.185 68.350 -12.481 C.3 1 NIL_1    0.000
23 C_2204 99.998 77.902 -9.964 C.2 1 NIL_1    0.000
24 C_2212 101.947 78.136 -8.762 C.2 1 NIL_1    0.000
25 C_1843 102.166 66.111 -10.897 C.2 1 NIL_1    0.000
26 C_1872 100.360 67.340 -9.637 C.3 1 NIL_1    0.000
27 C_1830 107.039 68.112 -9.606 C.2 1 NIL_1    0.000
28 C_1876 107.262 68.907 -13.446 C.3 1 NIL_1    0.000
29 C_2206 99.892 79.228 -10.053 C.2 1 NIL_1    0.000
30 C_2210 101.843 79.463 -8.847 C.2 1 NIL_1    0.000
31 AP 101.836 64.823 -10.153 C.3 1 NIL_1    0.000
32 O 102.984 66.108 -11.800 O.2 1 NIL_1    0.000
33 C_1879 100.661 67.530 -8.133 C.3 1 NIL_1    0.000
34 O 108.076 68.095 -10.240 O.2 1 NIL_1    0.000
35 N 106.947 67.453 -8.413 N.am 1 NIL_1    0.000
36 O 108.397 69.496 -12.766 O.3 1 NIL_1    0.000
37 C_2208 100.813 80.015 -9.493 C.2 1 NIL_1    0.000
38 C_1827 100.702 64.059 -10.855 C.3 1 NIL_1    0.000
39 N 103.016 63.940 -10.055 N.am 1 NIL_1    0.000
40 O 99.439 67.454 -7.360 O.3 1 NIL_1    0.000
41 C_1813 108.143 66.975 -7.701 C.3 1 NIL_1    0.000
42 BP 105.987 67.787 -7.333 C.3 1 NIL_1    0.000
43 C_1878 108.282 70.884 -12.370 C.3 1 NIL_1    0.000
44 O 100.691 81.370 -9.565 O.3 1 NIL_1    0.000
45 AQ 101.259 62.653 -11.144 C.3 1 NIL_1    0.000
46 C_1825 102.759 62.698 -10.798 C.3 1 NIL_1    0.000
47 C_1844 104.223 64.246 -9.494 C.2 1 NIL_1    0.000
48 C_1881 98.768 66.174 -7.327 C.3 1 NIL_1    0.000
49 BQ 108.274 67.924 -6.493 C.3 1 NIL_1    0.000
50 C_1833 105.342 66.579 -6.625 C.2 1 NIL_1    0.000
51 C_1815 106.891 68.604 -6.377 C.3 1 NIL_1    0.000
52 C_2271 101.181 81.940 -10.799 C.3 1 NIL_1    0.000
53 C_1846 100.967 62.239 -12.567 C.2 1 NIL_1    0.000
54 NH 100.525 61.609 -10.444 N.am 1 NIL_1    0.000
55 O 105.171 63.493 -9.623 O.2 1 NIL_1    0.000
56 C_1835 104.390 65.569 -8.734 C.3 1 NIL_1    0.000
57 C_1850 108.698 67.204 -5.233 C.2 1 NIL_1    0.000
58 NH 109.368 68.880 -6.596 N.am 1 NIL_1    0.000
59 O 105.274 66.567 -5.409 O.2 1 NIL_1    0.000
60 N 104.884 65.496 -7.332 N.am 1 NIL_1    0.000
61 N 100.088 61.210 -12.535 N.am 1 NIL_1    0.000
62 O 101.412 62.761 -13.572 O.2 1 NIL_1    0.000
63 C_1848 99.822 60.814 -11.267 C.2 1 NIL_1    0.000
64 N 109.835 67.782 -4.783 N.am 1 NIL_1    0.000
65 O 108.131 66.263 -4.710 O.2 1 NIL_1    0.000
66 C_1852 110.241 68.799 -5.579 C.2 1 NIL_1    0.000
67 C_1870 104.485 64.253 -6.618 C.3 1 NIL_1    0.000
68 C_1866 99.383 60.701 -13.724 C.3 1 NIL_1    0.000
69 O 99.075 59.922 -10.917 O.2 1 NIL_1    0.000
70 C_1864 110.570 67.315 -3.597 C.3 1 NIL_1    0.000
71 O 111.210 69.515 -5.420 O.2 1 NIL_1    0.000
72 C_1873 102.986 64.156 -6.275 C.3 1 NIL_1    0.000
73 C_1867 98.508 61.808 -14.286 C.2 1 NIL_1    0.000
74 C_1865 111.318 66.033 -3.903 C.2 1 NIL_1    0.000
75 O 102.643 65.164 -5.300 O.3 1 NIL_1    0.000
76 C_2172 98.782 62.364 -15.471 C.2 1 NIL_1    0.000
77 C_2180 97.473 62.278 -13.581 C.2 1 NIL_1    0.000
78 C_2196 112.418 66.055 -4.660 C.2 1 NIL_1    0.000
79 C_2188 110.889 64.861 -3.428 C.2 1 NIL_1    0.000
80 C_1875 101.387 64.938 -4.627 C.3 1 NIL_1    0.000
81 C_2174 98.054 63.383 -15.931 C.2 1 NIL_1    0.000
82 C_2178 96.744 63.296 -14.038 C.2 1 NIL_1    0.000
83 C_2194 113.076 64.929 -4.935 C.2 1 NIL_1    0.000
84 C_2190 111.543 63.732 -3.704 C.2 1 NIL_1    0.000
85 C_2176 97.036 63.867 -15.208 C.2 1 NIL_1    0.000
86 C_2192 112.651 63.755 -4.461 C.2 1 NIL_1    0.000
87 O 96.284 64.928 -15.629 O.3 1 NIL_1    0.000
88 O 113.379 62.637 -4.787 O.3 1 NIL_1    0.000
89 C_2273 97.019 66.121 -15.998 C.3 1 NIL_1    0.000
90 C_2269 113.152 61.403 -4.062 C.3 1 NIL_1    0.000
91 H_22691 113.876 60.657 -4.398 H 1 NIL_1    0.000
92 H_22692 112.142 61.036 -4.263 H 1 NIL_1    0.000
93 H_22693 113.284 61.578 -2.991 H 1 NIL_1    0.000
94 H_22731 97.713 66.387 -15.195 H 1 NIL_1    0.000
95 H_22732 96.308 66.938 -16.147 H 1 NIL_1    0.000
96 H_22733 97.569 65.948 -16.927 H 1 NIL_1    0.000
97 H_2190 111.151 62.802 -3.301 H 1 NIL_1    0.000
98 H_2194 113.972 64.974 -5.552 H 1 NIL_1    0.000
99 H_2178 95.917 63.674 -13.441 H 1 NIL_1    0.000
100 H_2174 98.302 63.821 -16.895 H 1 NIL_1    0.000
101 H_18751 101.464 64.033 -4.017 H 1 NIL_1    0.000
102 H_18752 100.593 64.814 -5.366 H 1 NIL_1    0.000
103 H_18753 101.167 65.797 -3.988 H 1 NIL_1    0.000
104 H_2188 109.993 64.820 -2.812 H 1 NIL_1    0.000
105 H_2196 112.785 67.000 -5.055 H 1 NIL_1    0.000
106 H_2180 97.230 61.842 -12.615 H 1 NIL_1    0.000
107 H_2172 99.617 61.998 -16.064 H 1 NIL_1    0.000
108 H_18731 102.368 64.291 -7.165 H 1 NIL_1    0.000
109 H_18732 102.787 63.172 -5.843 H 1 NIL_1    0.000
110 H_18641 109.856 67.158 -2.784 H 1 NIL_1    0.000
111 H_18642 111.278 68.085 -3.279 H 1 NIL_1    0.000
112 H_18661 98.764 59.841 -13.454 H 1 NIL_1    0.000
113 H_18662 100.122 60.374 -14.460 H 1 NIL_1    0.000
114 H_18701 105.052 64.166 -5.686 H 1 NIL_1    0.000
115 H_18702 104.761 63.380 -7.210 H 1 NIL_1    0.000
116 H_18351 105.071 66.149 -9.352 H 1 NIL_1    0.000
117 H_18352 103.440 66.100 -8.695 H 1 NIL_1    0.000
118 H_22711 102.267 81.815 -10.846 H 1 NIL_1    0.000
119 H_22712 100.931 83.003 -10.819 H 1 NIL_1    0.000
120 H_22713 100.711 81.437 -11.650 H 1 NIL_1    0.000
121 H_18151 106.957 69.628 -6.757 H 1 NIL_1    0.000
122 H_18152 106.527 68.664 -5.349 H 1 NIL_1    0.000
123 H_18811 99.486 65.395 -7.070 H 1 NIL_1    0.000
124 H_18812 98.324 65.961 -8.304 H 1 NIL_1    0.000
125 H_18813 97.980 66.211 -6.570 H 1 NIL_1    0.000
126 H_18251 103.041 61.830 -10.195 H 1 NIL_1    0.000
127 H_18252 103.361 62.710 -11.711 H 1 NIL_1    0.000
128 H_18781 107.848 71.470 -13.187 H 1 NIL_1    0.000
129 H_18782 109.280 71.266 -12.141 H 1 NIL_1    0.000
130 H_18783 107.655 70.967 -11.480 H 1 NIL_1    0.000
131 HP 105.162 68.410 -7.683 H 1 NIL_1    0.000
132 H_18131 109.042 66.988 -8.324 H 1 NIL_1    0.000
133 H_18132 107.956 65.950 -7.371 H 1 NIL_1    0.000
134 H_18271 99.818 64.018 -10.214 H 1 NIL_1    0.000
135 H_18272 100.408 64.559 -11.781 H 1 NIL_1    0.000
136 H_18791 101.359 66.772 -7.769 H 1 NIL_1    0.000
137 H_18792 101.095 68.519 -7.964 H 1 NIL_1    0.000
138 HP 101.522 65.070 -9.138 H 1 NIL_1    0.000
139 H_2210 102.598 80.094 -8.383 H 1 NIL_1    0.000
140 H_2206 99.046 79.667 -10.577 H 1 NIL_1    0.000
141 H_18761 107.632 68.079 -14.056 H 1 NIL_1    0.000
142 H_18762 106.830 69.651 -14.119 H 1 NIL_1    0.000
143 H_18721 99.777 66.431 -9.789 H 1 NIL_1    0.000
144 H_18722 99.736 68.172 -9.971 H 1 NIL_1    0.000
145 H_2212 102.789 77.700 -8.228 H 1 NIL_1    0.000
146 H_2204 99.234 77.276 -10.420 H 1 NIL_1    0.000
147 H_18711 105.340 68.020 -13.092 H 1 NIL_1    0.000
148 H_18712 106.563 67.447 -11.999 H 1 NIL_1    0.000
149 H_18291 104.936 68.338 -9.779 H 1 NIL_1    0.000
150 H_18292 105.848 69.822 -9.444 H 1 NIL_1    0.000
151 H_18401 103.258 68.342 -11.079 H 1 NIL_1    0.000
152 H_18402 102.558 68.856 -9.552 H 1 NIL_1    0.000
153 H_18681 101.515 75.615 -8.185 H 1 NIL_1    0.000
154 H_18682 100.105 75.430 -9.204 H 1 NIL_1    0.000
155 HP 103.951 70.553 -9.885 H 1 NIL_1    0.000
156 H_18181 104.544 72.771 -9.846 H 1 NIL_1    0.000
157 H_18182 104.946 72.740 -11.568 H 1 NIL_1    0.000
158 H_18161 100.925 72.286 -11.684 H 1 NIL_1    0.000
159 H_18162 102.189 72.109 -12.941 H 1 NIL_1    0.000
160 HH 109.433 69.558 -7.340 H 1 NIL_1    0.000
161 HH 100.500 61.541 -9.437 H 1 NIL_1    0.000
162 HH 103.430 74.463 -12.837 H 1 NIL_1    0.000
@<TRIPOS>BOND
1 1 2 1 
2 3 1 1 
3 4 1 1 
4 5 10 1 
5 5 1 1 
6 5 162 1 
7 6 2 1 
8 7 3 1 
9 7 6 1 
10 7 155 1 
11 8 4 1 
12 9 4 2 
13 10 8 1 
14 11 6 1 
15 12 7 1 
16 13 8 1 
17 13 153 1 
18 13 154 1 
19 14 10 2 
20 15 11 2 
21 16 20 1 
22 16 11 1 
23 16 151 1 
24 16 152 1 
25 17 12 2 
26 18 12 1 
27 19 13 1 
28 20 25 1 
29 21 18 1 
30 21 27 1 
31 21 149 1 
32 21 150 1 
33 22 18 1 
34 22 28 1 
35 22 147 1 
36 22 148 1 
37 23 19 2 
38 23 146 1 
39 24 30 2 
40 24 19 1 
41 24 145 1 
42 25 31 1 
43 26 20 1 
44 26 33 1 
45 26 143 1 
46 26 144 1 
47 27 35 1 
48 28 141 1 
49 28 142 1 
50 29 23 1 
51 29 140 1 
52 30 37 1 
53 30 139 1 
54 31 138 1 
55 32 25 2 
56 33 136 1 
57 33 137 1 
58 34 27 2 
59 36 28 1 
60 37 29 2 
61 38 45 1 
62 38 31 1 
63 38 134 1 
64 38 135 1 
65 39 46 1 
66 39 31 1 
67 39 47 1 
68 40 33 1 
69 41 35 1 
70 41 49 1 
71 41 132 1 
72 41 133 1 
73 42 51 1 
74 42 35 1 
75 42 131 1 
76 43 36 1 
77 43 128 1 
78 43 129 1 
79 43 130 1 
80 44 37 1 
81 45 46 1 
82 46 126 1 
83 46 127 1 
84 48 40 1 
85 48 123 1 
86 48 124 1 
87 48 125 1 
88 50 42 1 
89 50 59 2 
90 51 49 1 
91 52 44 1 
92 52 118 1 
93 52 119 1 
94 52 120 1 
95 53 45 1 
96 54 63 1 
97 54 45 1 
98 54 161 1 
99 55 47 2 
100 56 60 1 
101 56 47 1 
102 56 116 1 
103 56 117 1 
104 57 49 1 
105 58 66 1 
106 58 49 1 
107 58 160 1 
108 60 50 1 
109 61 53 1 
110 62 53 2 
111 63 61 1 
112 64 57 1 
113 65 57 2 
114 66 64 1 
115 67 60 1 
116 67 72 1 
117 67 114 1 
118 67 115 1 
119 68 61 1 
120 68 112 1 
121 68 113 1 
122 69 63 2 
123 70 64 1 
124 70 74 1 
125 71 66 2 
126 73 68 1 
127 73 76 2 
128 73 77 1 
129 74 78 1 
130 75 72 1 
131 77 82 2 
132 79 84 1 
133 79 74 2 
134 79 104 1 
135 80 75 1 
136 81 76 1 
137 82 85 1 
138 83 78 2 
139 84 86 2 
140 84 97 1 
141 85 81 2 
142 86 88 1 
143 86 83 1 
144 87 85 1 
145 89 87 1 
146 89 96 1 
147 90 88 1 
148 91 90 1 
149 92 90 1 
150 93 90 1 
151 94 89 1 
152 95 89 1 
153 98 83 1 
154 99 82 1 
155 100 81 1 
156 101 80 1 
157 102 80 1 
158 103 80 1 
159 105 78 1 
160 106 77 1 
161 107 76 1 
162 108 72 1 
163 109 72 1 
164 110 70 1 
165 111 70 1 
166 121 51 1 
167 122 51 1 
168 156 3 1 
169 157 3 1 
170 158 2 1 
171 159 2 1 
@<TRIPOS>SUBSTRUCTURE
1 NIL_1 1 RESIDUE 1 A NIL 1
