@<TRIPOS>MOLECULE
NIL
162 171 1 0 0
POLYMER
CHARGES


@<TRIPOS>ATOM
1 CQ 88.4292 53.6293 -33.647 C.3 1 NIL_1    0.000
2 C_1816 87.468 52.440 -33.537 C.3 1 NIL_1    0.000
3 C_1818 89.469 53.371 -32.559 C.3 1 NIL_1    0.000
4 C_1854 87.713 54.942 -33.428 C.2 1 NIL_1    0.000
5 NH 88.997 53.875 -34.961 N.am 1 NIL_1    0.000
6 N 87.499 52.024 -32.126 N.am 1 NIL_1    0.000
7 CP 88.675 52.635 -31.464 C.3 1 NIL_1    0.000
8 N 87.952 55.728 -34.503 N.am 1 NIL_1    0.000
9 O 87.041 55.244 -32.459 O.2 1 NIL_1    0.000
10 C_1856 88.749 55.115 -35.415 C.2 1 NIL_1    0.000
11 C_1841 86.584 51.229 -31.507 C.2 1 NIL_1    0.000
12 C_1838 89.572 51.634 -30.741 C.2 1 NIL_1    0.000
13 C_1868 87.411 57.091 -34.650 C.3 1 NIL_1    0.000
14 O 89.177 55.581 -36.453 O.2 1 NIL_1    0.000
15 O 86.693 50.941 -30.330 O.2 1 NIL_1    0.000
16 C_1840 85.417 50.731 -32.355 C.3 1 NIL_1    0.000
17 O 89.650 50.484 -31.133 O.2 1 NIL_1    0.000
18 N 90.306 52.065 -29.672 N.am 1 NIL_1    0.000
19 C_1869 86.805 57.373 -36.010 C.2 1 NIL_1    0.000
20 N 84.419 49.970 -31.575 N.am 1 NIL_1    0.000
21 C_1829 91.135 51.134 -28.878 C.3 1 NIL_1    0.000
22 C_1871 90.399 53.466 -29.216 C.3 1 NIL_1    0.000
23 C_2204 87.206 58.429 -36.725 C.2 1 NIL_1    0.000
24 C_2212 85.869 56.568 -36.524 C.2 1 NIL_1    0.000
25 C_1843 84.440 48.607 -31.500 C.2 1 NIL_1    0.000
26 C_1872 83.475 50.869 -30.873 C.3 1 NIL_1    0.000
27 C_1830 90.305 50.002 -28.283 C.2 1 NIL_1    0.000
28 C_1876 89.287 53.834 -28.213 C.3 1 NIL_1    0.000
29 C_2206 86.687 58.675 -37.927 C.2 1 NIL_1    0.000
30 C_2210 85.352 56.811 -37.728 C.2 1 NIL_1    0.000
31 AP 83.606 47.917 -30.420 C.3 1 NIL_1    0.000
32 O 85.129 47.949 -32.259 O.2 1 NIL_1    0.000
33 C_1879 82.211 51.141 -31.705 C.3 1 NIL_1    0.000
34 O 89.257 50.245 -27.714 O.2 1 NIL_1    0.000
35 N 90.758 48.727 -28.422 N.am 1 NIL_1    0.000
36 O 89.279 55.266 -27.992 O.3 1 NIL_1    0.000
37 C_2208 85.753 57.864 -38.446 C.2 1 NIL_1    0.000
38 C_1827 82.185 47.599 -30.929 C.3 1 NIL_1    0.000
39 N 84.207 46.657 -29.938 N.am 1 NIL_1    0.000
40 O 81.314 51.952 -30.920 O.3 1 NIL_1    0.000
41 C_1813 92.020 48.317 -29.048 C.3 1 NIL_1    0.000
42 BP 89.952 47.528 -28.128 C.3 1 NIL_1    0.000
43 C_1878 88.751 56.083 -29.064 C.3 1 NIL_1    0.000
44 O 85.175 58.043 -39.678 O.3 1 NIL_1    0.000
45 AQ 82.067 46.066 -30.909 C.3 1 NIL_1    0.000
46 C_1825 83.227 45.569 -30.037 C.3 1 NIL_1    0.000
47 C_1844 85.416 46.518 -29.329 C.2 1 NIL_1    0.000
48 C_1881 80.027 52.191 -31.524 C.3 1 NIL_1    0.000
49 BQ 92.210 46.830 -28.728 C.3 1 NIL_1    0.000
50 C_1833 88.646 47.553 -28.925 C.2 1 NIL_1    0.000
51 C_1815 90.796 46.284 -28.477 C.3 1 NIL_1    0.000
52 C_2271 85.693 59.064 -40.565 C.3 1 NIL_1    0.000
53 C_1846 82.122 45.454 -32.291 C.2 1 NIL_1    0.000
54 NH 80.761 45.583 -30.493 N.am 1 NIL_1    0.000
55 O 85.839 45.419 -29.020 O.2 1 NIL_1    0.000
56 C_1835 86.196 47.791 -29.032 C.3 1 NIL_1    0.000
57 C_1850 92.963 46.091 -29.807 C.2 1 NIL_1    0.000
58 NH 93.113 46.605 -27.610 N.am 1 NIL_1    0.000
59 O 88.694 47.582 -30.142 O.2 1 NIL_1    0.000
60 N 87.448 47.581 -28.268 N.am 1 NIL_1    0.000
61 N 80.987 44.737 -32.482 N.am 1 NIL_1    0.000
62 O 83.026 45.580 -33.097 O.2 1 NIL_1    0.000
63 C_1848 80.146 44.833 -31.422 C.2 1 NIL_1    0.000
64 N 94.077 45.563 -29.254 N.am 1 NIL_1    0.000
65 O 92.632 45.984 -30.973 O.2 1 NIL_1    0.000
66 C_1852 94.182 45.861 -27.938 C.2 1 NIL_1    0.000
67 C_1870 87.322 47.507 -26.785 C.3 1 NIL_1    0.000
68 C_1866 80.687 43.994 -33.720 C.3 1 NIL_1    0.000
69 O 79.035 44.353 -31.313 O.2 1 NIL_1    0.000
70 C_1864 95.052 44.749 -29.997 C.3 1 NIL_1    0.000
71 O 95.070 45.527 -27.180 O.2 1 NIL_1    0.000
72 C_1873 85.937 47.693 -26.118 C.3 1 NIL_1    0.000
73 C_1867 80.000 42.650 -33.549 C.2 1 NIL_1    0.000
74 C_1865 94.498 43.379 -30.329 C.2 1 NIL_1    0.000
75 O 85.096 46.544 -26.356 O.3 1 NIL_1    0.000
76 C_2172 80.612 41.630 -32.938 C.2 1 NIL_1    0.000
77 C_2180 78.761 42.464 -34.013 C.2 1 NIL_1    0.000
78 C_2196 94.207 42.512 -29.355 C.2 1 NIL_1    0.000
79 C_2188 94.289 43.011 -31.597 C.2 1 NIL_1    0.000
80 C_1875 83.739 46.686 -25.890 C.3 1 NIL_1    0.000
81 C_2174 79.999 40.453 -32.789 C.2 1 NIL_1    0.000
82 C_2178 78.147 41.289 -33.867 C.2 1 NIL_1    0.000
83 C_2194 93.720 41.304 -29.643 C.2 1 NIL_1    0.000
84 C_2190 93.804 41.803 -31.887 C.2 1 NIL_1    0.000
85 C_2176 78.754 40.270 -33.255 C.2 1 NIL_1    0.000
86 C_2192 93.513 40.932 -30.908 C.2 1 NIL_1    0.000
87 O 78.048 39.096 -33.150 O.3 1 NIL_1    0.000
88 O 93.010 39.670 -31.114 O.3 1 NIL_1    0.000
89 C_2273 78.604 37.976 -32.421 C.3 1 NIL_1    0.000
90 C_2269 92.733 39.208 -32.459 C.3 1 NIL_1    0.000
91 H_22691 91.998 39.866 -32.930 H 1 NIL_1    0.000
92 H_22692 92.324 38.196 -32.401 H 1 NIL_1    0.000
93 H_22693 93.659 39.191 -33.040 H 1 NIL_1    0.000
94 H_22731 77.876 37.160 -32.432 H 1 NIL_1    0.000
95 H_22732 78.800 38.273 -31.387 H 1 NIL_1    0.000
96 H_22733 79.526 37.644 -32.906 H 1 NIL_1    0.000
97 H_2190 93.654 41.550 -32.934 H 1 NIL_1    0.000
98 H_2194 93.488 40.614 -28.834 H 1 NIL_1    0.000
99 H_2178 77.137 41.163 -34.251 H 1 NIL_1    0.000
100 H_2174 80.537 39.655 -32.284 H 1 NIL_1    0.000
101 H_18751 83.740 46.888 -24.815 H 1 NIL_1    0.000
102 H_18752 83.192 45.763 -26.090 H 1 NIL_1    0.000
103 H_18753 83.266 47.515 -26.423 H 1 NIL_1    0.000
104 H_2188 94.516 43.702 -32.407 H 1 NIL_1    0.000
105 H_2196 94.366 42.791 -28.316 H 1 NIL_1    0.000
106 H_2180 78.240 43.276 -34.513 H 1 NIL_1    0.000
107 H_2172 81.623 41.758 -32.553 H 1 NIL_1    0.000
108 H_18731 86.080 47.787 -25.039 H 1 NIL_1    0.000
109 H_18732 85.444 48.599 -26.479 H 1 NIL_1    0.000
110 H_18641 95.959 44.633 -29.398 H 1 NIL_1    0.000
111 H_18642 95.327 45.280 -30.913 H 1 NIL_1    0.000
112 H_18661 81.622 43.828 -34.260 H 1 NIL_1    0.000
113 H_18662 80.064 44.642 -34.343 H 1 NIL_1    0.000
114 H_18701 87.959 48.292 -26.371 H 1 NIL_1    0.000
115 H_18702 87.730 46.545 -26.459 H 1 NIL_1    0.000
116 H_18351 86.438 48.254 -29.988 H 1 NIL_1    0.000
117 H_18352 85.539 48.487 -28.511 H 1 NIL_1    0.000
118 H_22711 86.761 58.893 -40.728 H 1 NIL_1    0.000
119 H_22712 85.529 60.050 -40.122 H 1 NIL_1    0.000
120 H_22713 85.165 59.004 -41.519 H 1 NIL_1    0.000
121 H_18151 90.776 45.562 -27.659 H 1 NIL_1    0.000
122 H_18152 90.416 45.788 -29.373 H 1 NIL_1    0.000
123 H_18811 79.448 52.849 -30.871 H 1 NIL_1    0.000
124 H_18812 79.501 51.240 -31.645 H 1 NIL_1    0.000
125 H_18813 80.165 52.666 -32.500 H 1 NIL_1    0.000
126 H_18251 82.865 45.348 -29.028 H 1 NIL_1    0.000
127 H_18252 83.688 44.675 -30.465 H 1 NIL_1    0.000
128 H_18781 88.740 57.126 -28.734 H 1 NIL_1    0.000
129 H_18782 87.731 55.761 -29.292 H 1 NIL_1    0.000
130 H_18783 89.379 55.990 -29.954 H 1 NIL_1    0.000
131 HP 89.766 47.519 -27.055 H 1 NIL_1    0.000
132 H_18131 92.855 48.909 -28.668 H 1 NIL_1    0.000
133 H_18132 91.929 48.458 -30.129 H 1 NIL_1    0.000
134 H_18271 81.453 48.047 -30.249 H 1 NIL_1    0.000
135 H_18272 82.001 47.996 -31.929 H 1 NIL_1    0.000
136 H_18791 82.468 51.673 -32.625 H 1 NIL_1    0.000
137 H_18792 81.713 50.201 -31.951 H 1 NIL_1    0.000
138 HP 83.540 48.572 -29.551 H 1 NIL_1    0.000
139 H_2210 84.596 56.140 -38.131 H 1 NIL_1    0.000
140 H_2206 87.047 59.548 -38.466 H 1 NIL_1    0.000
141 H_18761 88.306 53.527 -28.589 H 1 NIL_1    0.000
142 H_18762 89.474 53.333 -27.260 H 1 NIL_1    0.000
143 H_18721 83.970 51.826 -30.684 H 1 NIL_1    0.000
144 H_18722 83.190 50.466 -29.902 H 1 NIL_1    0.000
145 H_2212 85.529 55.702 -35.961 H 1 NIL_1    0.000
146 H_2204 87.967 59.098 -36.328 H 1 NIL_1    0.000
147 H_18711 90.366 54.125 -30.081 H 1 NIL_1    0.000
148 H_18712 91.367 53.633 -28.738 H 1 NIL_1    0.000
149 H_18291 91.620 51.644 -28.041 H 1 NIL_1    0.000
150 H_18292 91.910 50.737 -29.536 H 1 NIL_1    0.000
151 H_18401 84.933 51.605 -32.801 H 1 NIL_1    0.000
152 H_18402 85.829 50.117 -33.158 H 1 NIL_1    0.000
153 H_18681 88.221 57.797 -34.449 H 1 NIL_1    0.000
154 H_18682 86.638 57.254 -33.894 H 1 NIL_1    0.000
155 HP 88.291 53.367 -30.750 H 1 NIL_1    0.000
156 H_18181 89.929 54.295 -32.204 H 1 NIL_1    0.000
157 H_18182 90.254 52.719 -32.953 H 1 NIL_1    0.000
158 H_18161 86.461 52.729 -33.850 H 1 NIL_1    0.000
159 H_18162 87.824 51.608 -34.152 H 1 NIL_1    0.000
160 HH 92.943 46.974 -26.687 H 1 NIL_1    0.000
161 HH 80.343 45.840 -29.611 H 1 NIL_1    0.000
162 HH 89.592 53.207 -35.430 H 1 NIL_1    0.000
@<TRIPOS>BOND
1 1 2 1 
2 3 1 1 
3 4 1 1 
4 5 10 1 
5 5 1 1 
6 5 162 1 
7 6 2 1 
8 7 3 1 
9 7 6 1 
10 7 155 1 
11 8 4 1 
12 9 4 2 
13 10 8 1 
14 11 6 1 
15 12 7 1 
16 13 8 1 
17 13 153 1 
18 13 154 1 
19 14 10 2 
20 15 11 2 
21 16 20 1 
22 16 11 1 
23 16 151 1 
24 16 152 1 
25 17 12 2 
26 18 12 1 
27 19 13 1 
28 20 25 1 
29 21 18 1 
30 21 27 1 
31 21 149 1 
32 21 150 1 
33 22 18 1 
34 22 28 1 
35 22 147 1 
36 22 148 1 
37 23 19 2 
38 23 146 1 
39 24 30 2 
40 24 19 1 
41 24 145 1 
42 25 31 1 
43 26 20 1 
44 26 33 1 
45 26 143 1 
46 26 144 1 
47 27 35 1 
48 28 141 1 
49 28 142 1 
50 29 23 1 
51 29 140 1 
52 30 37 1 
53 30 139 1 
54 31 138 1 
55 32 25 2 
56 33 136 1 
57 33 137 1 
58 34 27 2 
59 36 28 1 
60 37 29 2 
61 38 45 1 
62 38 31 1 
63 38 134 1 
64 38 135 1 
65 39 46 1 
66 39 31 1 
67 39 47 1 
68 40 33 1 
69 41 35 1 
70 41 49 1 
71 41 132 1 
72 41 133 1 
73 42 51 1 
74 42 35 1 
75 42 131 1 
76 43 36 1 
77 43 128 1 
78 43 129 1 
79 43 130 1 
80 44 37 1 
81 45 46 1 
82 46 126 1 
83 46 127 1 
84 48 40 1 
85 48 123 1 
86 48 124 1 
87 48 125 1 
88 50 42 1 
89 50 59 2 
90 51 49 1 
91 52 44 1 
92 52 118 1 
93 52 119 1 
94 52 120 1 
95 53 45 1 
96 54 63 1 
97 54 45 1 
98 54 161 1 
99 55 47 2 
100 56 60 1 
101 56 47 1 
102 56 116 1 
103 56 117 1 
104 57 49 1 
105 58 66 1 
106 58 49 1 
107 58 160 1 
108 60 50 1 
109 61 53 1 
110 62 53 2 
111 63 61 1 
112 64 57 1 
113 65 57 2 
114 66 64 1 
115 67 60 1 
116 67 72 1 
117 67 114 1 
118 67 115 1 
119 68 61 1 
120 68 112 1 
121 68 113 1 
122 69 63 2 
123 70 64 1 
124 70 74 1 
125 71 66 2 
126 73 68 1 
127 73 76 2 
128 73 77 1 
129 74 78 1 
130 75 72 1 
131 77 82 2 
132 79 84 1 
133 79 74 2 
134 79 104 1 
135 80 75 1 
136 81 76 1 
137 82 85 1 
138 83 78 2 
139 84 86 2 
140 84 97 1 
141 85 81 2 
142 86 88 1 
143 86 83 1 
144 87 85 1 
145 89 87 1 
146 89 96 1 
147 90 88 1 
148 91 90 1 
149 92 90 1 
150 93 90 1 
151 94 89 1 
152 95 89 1 
153 98 83 1 
154 99 82 1 
155 100 81 1 
156 101 80 1 
157 102 80 1 
158 103 80 1 
159 105 78 1 
160 106 77 1 
161 107 76 1 
162 108 72 1 
163 109 72 1 
164 110 70 1 
165 111 70 1 
166 121 51 1 
167 122 51 1 
168 156 3 1 
169 157 3 1 
170 158 2 1 
171 159 2 1 
@<TRIPOS>SUBSTRUCTURE
1 NIL_1 1 RESIDUE 1 A NIL 1
