@<TRIPOS>MOLECULE
NIL
162 171 1 0 0
POLYMER
CHARGES


@<TRIPOS>ATOM
1 CQ 90.5617 55.8515 -29.7488 C.3 1 NIL_1    0.000
2 C_1816 89.905 54.485 -29.493 C.3 1 NIL_1    0.000
3 C_1818 89.937 56.818 -28.734 C.3 1 NIL_1    0.000
4 C_1854 90.382 56.340 -31.168 C.2 1 NIL_1    0.000
5 NH 92.015 55.817 -29.698 N.am 1 NIL_1    0.000
6 N 88.769 54.677 -28.575 N.am 1 NIL_1    0.000
7 CP 88.656 56.120 -28.241 C.3 1 NIL_1    0.000
8 N 91.610 56.553 -31.698 N.am 1 NIL_1    0.000
9 O 89.322 56.540 -31.731 O.2 1 NIL_1    0.000
10 C_1856 92.599 56.241 -30.828 C.2 1 NIL_1    0.000
11 C_1841 87.908 53.669 -28.260 C.2 1 NIL_1    0.000
12 C_1838 88.366 56.570 -26.802 C.2 1 NIL_1    0.000
13 C_1868 91.852 57.174 -33.011 C.3 1 NIL_1    0.000
14 O 93.798 56.332 -31.009 O.2 1 NIL_1    0.000
15 O 88.141 52.527 -28.608 O.2 1 NIL_1    0.000
16 C_1840 86.645 54.027 -27.489 C.3 1 NIL_1    0.000
17 O 87.469 57.377 -26.642 O.2 1 NIL_1    0.000
18 N 89.073 56.098 -25.723 N.am 1 NIL_1    0.000
19 C_1869 91.823 58.682 -32.861 C.2 1 NIL_1    0.000
20 N 85.766 52.882 -27.142 N.am 1 NIL_1    0.000
21 C_1829 90.176 55.102 -25.786 C.3 1 NIL_1    0.000
22 C_1871 88.807 56.642 -24.357 C.3 1 NIL_1    0.000
23 C_2204 90.719 59.374 -33.155 C.2 1 NIL_1    0.000
24 C_2212 92.893 59.341 -32.402 C.2 1 NIL_1    0.000
25 C_1843 85.712 52.399 -25.860 C.2 1 NIL_1    0.000
26 C_1872 84.946 52.469 -28.297 C.3 1 NIL_1    0.000
27 C_1830 89.918 53.792 -25.047 C.2 1 NIL_1    0.000
28 C_1876 90.011 56.812 -23.402 C.3 1 NIL_1    0.000
29 C_2206 90.682 60.696 -32.982 C.2 1 NIL_1    0.000
30 C_2210 92.855 60.662 -32.224 C.2 1 NIL_1    0.000
31 AP 84.558 51.517 -25.342 C.3 1 NIL_1    0.000
32 O 86.539 52.792 -25.061 O.2 1 NIL_1    0.000
33 C_1879 83.553 53.133 -28.297 C.3 1 NIL_1    0.000
34 O 89.105 53.697 -24.147 O.2 1 NIL_1    0.000
35 N 90.667 52.720 -25.414 N.am 1 NIL_1    0.000
36 O 90.939 57.758 -23.977 O.3 1 NIL_1    0.000
37 C_2208 91.742 61.355 -32.506 C.2 1 NIL_1    0.000
38 C_1827 83.995 50.326 -26.144 C.3 1 NIL_1    0.000
39 N 84.731 50.958 -23.975 N.am 1 NIL_1    0.000
40 O 82.830 52.800 -29.507 O.3 1 NIL_1    0.000
41 C_1813 91.708 52.713 -26.448 C.3 1 NIL_1    0.000
42 BP 90.497 51.352 -24.881 C.3 1 NIL_1    0.000
43 C_1878 92.050 58.123 -23.129 C.3 1 NIL_1    0.000
44 O 91.627 62.712 -32.332 O.3 1 NIL_1    0.000
45 AQ 82.981 49.759 -25.133 C.3 1 NIL_1    0.000
46 C_1825 83.555 50.107 -23.745 C.3 1 NIL_1    0.000
47 C_1844 85.893 50.602 -23.362 C.2 1 NIL_1    0.000
48 C_1881 82.339 51.444 -29.618 C.3 1 NIL_1    0.000
49 BQ 92.513 51.430 -26.241 C.3 1 NIL_1    0.000
50 C_1833 89.064 50.850 -25.075 C.2 1 NIL_1    0.000
51 C_1815 91.507 50.449 -25.627 C.3 1 NIL_1    0.000
52 C_2271 92.530 63.380 -31.415 C.3 1 NIL_1    0.000
53 C_1846 82.686 48.289 -25.308 C.2 1 NIL_1    0.000
54 NH 81.637 50.292 -25.312 N.am 1 NIL_1    0.000
55 O 85.986 50.753 -22.159 O.2 1 NIL_1    0.000
56 C_1835 86.957 49.863 -24.183 C.3 1 NIL_1    0.000
57 C_1850 93.174 50.939 -27.506 C.2 1 NIL_1    0.000
58 NH 93.692 51.652 -25.421 N.am 1 NIL_1    0.000
59 O 88.563 50.931 -26.180 O.2 1 NIL_1    0.000
60 N 88.365 50.317 -24.026 N.am 1 NIL_1    0.000
61 N 81.353 48.149 -25.503 N.am 1 NIL_1    0.000
62 O 83.502 47.388 -25.273 O.2 1 NIL_1    0.000
63 C_1848 80.709 49.342 -25.497 C.2 1 NIL_1    0.000
64 N 94.513 50.957 -27.310 N.am 1 NIL_1    0.000
65 O 92.609 50.593 -28.526 O.2 1 NIL_1    0.000
66 C_1852 94.840 51.390 -26.069 C.2 1 NIL_1    0.000
67 C_1870 88.942 50.017 -22.696 C.3 1 NIL_1    0.000
68 C_1866 80.679 46.850 -25.684 C.3 1 NIL_1    0.000
69 O 79.518 49.540 -25.635 O.2 1 NIL_1    0.000
70 C_1864 95.502 50.561 -28.325 C.3 1 NIL_1    0.000
71 O 95.958 51.526 -25.613 O.2 1 NIL_1    0.000
72 C_1873 89.860 48.780 -22.700 C.3 1 NIL_1    0.000
73 C_1867 79.727 46.783 -26.864 C.2 1 NIL_1    0.000
74 C_1865 96.128 49.221 -27.999 C.2 1 NIL_1    0.000
75 O 90.067 48.382 -21.327 O.3 1 NIL_1    0.000
76 C_2172 80.060 47.299 -28.053 C.2 1 NIL_1    0.000
77 C_2180 78.528 46.209 -26.726 C.2 1 NIL_1    0.000
78 C_2196 95.425 48.090 -28.117 C.2 1 NIL_1    0.000
79 C_2188 97.394 49.150 -27.584 C.2 1 NIL_1    0.000
80 C_1875 90.879 47.205 -21.136 C.3 1 NIL_1    0.000
81 C_2174 79.205 47.254 -29.076 C.2 1 NIL_1    0.000
82 C_2178 77.673 46.161 -27.749 C.2 1 NIL_1    0.000
83 C_2194 95.975 46.910 -27.825 C.2 1 NIL_1    0.000
84 C_2190 97.946 47.973 -27.291 C.2 1 NIL_1    0.000
85 C_2176 78.000 46.692 -28.929 C.2 1 NIL_1    0.000
86 C_2192 97.248 46.841 -27.409 C.2 1 NIL_1    0.000
87 O 77.099 46.640 -29.954 O.3 1 NIL_1    0.000
88 O 97.883 45.671 -27.075 O.3 1 NIL_1    0.000
89 C_2273 76.783 47.911 -30.571 C.3 1 NIL_1    0.000
90 C_2269 97.387 44.420 -27.607 C.3 1 NIL_1    0.000
91 H_22691 96.382 44.224 -27.223 H 1 NIL_1    0.000
92 H_22692 98.056 43.618 -27.287 H 1 NIL_1    0.000
93 H_22693 97.377 44.469 -28.700 H 1 NIL_1    0.000
94 H_22731 75.965 47.764 -31.281 H 1 NIL_1    0.000
95 H_22732 77.655 48.301 -31.101 H 1 NIL_1    0.000
96 H_22733 76.470 48.618 -29.797 H 1 NIL_1    0.000
97 H_2190 98.980 47.939 -26.953 H 1 NIL_1    0.000
98 H_2194 95.365 46.016 -27.928 H 1 NIL_1    0.000
99 H_2178 76.701 45.692 -27.613 H 1 NIL_1    0.000
100 H_2174 79.501 47.680 -30.031 H 1 NIL_1    0.000
101 H_18751 91.896 47.402 -21.487 H 1 NIL_1    0.000
102 H_18752 90.446 46.367 -21.689 H 1 NIL_1    0.000
103 H_18753 90.896 46.970 -20.069 H 1 NIL_1    0.000
104 H_2188 97.985 50.056 -27.477 H 1 NIL_1    0.000
105 H_2196 94.390 48.128 -28.450 H 1 NIL_1    0.000
106 H_2180 78.237 45.778 -25.772 H 1 NIL_1    0.000
107 H_2172 81.031 47.770 -28.195 H 1 NIL_1    0.000
108 H_18731 89.376 47.959 -23.238 H 1 NIL_1    0.000
109 H_18732 90.822 49.013 -23.162 H 1 NIL_1    0.000
110 H_18641 96.275 51.333 -28.374 H 1 NIL_1    0.000
111 H_18642 95.024 50.512 -29.306 H 1 NIL_1    0.000
112 H_18661 80.132 46.639 -24.761 H 1 NIL_1    0.000
113 H_18662 81.432 46.068 -25.803 H 1 NIL_1    0.000
114 H_18701 88.140 49.808 -21.989 H 1 NIL_1    0.000
115 H_18702 89.478 50.889 -22.314 H 1 NIL_1    0.000
116 H_18351 86.895 48.815 -23.882 H 1 NIL_1    0.000
117 H_18352 86.664 49.902 -25.232 H 1 NIL_1    0.000
118 H_22711 92.209 64.419 -31.302 H 1 NIL_1    0.000
119 H_22712 93.545 63.359 -31.818 H 1 NIL_1    0.000
120 H_22713 92.498 62.883 -30.441 H 1 NIL_1    0.000
121 H_18151 91.988 49.726 -24.964 H 1 NIL_1    0.000
122 H_18152 91.001 49.894 -26.422 H 1 NIL_1    0.000
123 H_18811 81.745 51.357 -30.532 H 1 NIL_1    0.000
124 H_18812 81.710 51.207 -28.756 H 1 NIL_1    0.000
125 H_18813 83.180 50.750 -29.670 H 1 NIL_1    0.000
126 H_18251 82.824 50.643 -23.131 H 1 NIL_1    0.000
127 H_18252 83.857 49.195 -23.221 H 1 NIL_1    0.000
128 H_18781 91.672 58.621 -22.232 H 1 NIL_1    0.000
129 H_18782 92.704 58.807 -23.678 H 1 NIL_1    0.000
130 H_18783 92.608 57.224 -22.851 H 1 NIL_1    0.000
131 HP 90.763 51.383 -23.826 H 1 NIL_1    0.000
132 H_18131 92.349 53.597 -26.381 H 1 NIL_1    0.000
133 H_18132 91.214 52.680 -27.419 H 1 NIL_1    0.000
134 H_18271 83.478 50.598 -27.061 H 1 NIL_1    0.000
135 H_18272 84.778 49.598 -26.371 H 1 NIL_1    0.000
136 H_18791 82.973 52.820 -27.424 H 1 NIL_1    0.000
137 H_18792 83.675 54.219 -28.266 H 1 NIL_1    0.000
138 HP 83.738 52.237 -25.262 H 1 NIL_1    0.000
139 H_2210 93.746 61.154 -31.843 H 1 NIL_1    0.000
140 H_2206 89.771 61.237 -33.220 H 1 NIL_1    0.000
141 H_18761 89.659 57.205 -22.445 H 1 NIL_1    0.000
142 H_18762 90.521 55.861 -23.224 H 1 NIL_1    0.000
143 H_18721 84.885 51.381 -28.335 H 1 NIL_1    0.000
144 H_18722 85.457 52.774 -29.214 H 1 NIL_1    0.000
145 H_2212 93.804 58.800 -32.159 H 1 NIL_1    0.000
146 H_2204 89.837 58.860 -33.530 H 1 NIL_1    0.000
147 H_18711 88.067 56.002 -23.871 H 1 NIL_1    0.000
148 H_18712 88.359 57.634 -24.448 H 1 NIL_1    0.000
149 H_18291 91.087 55.530 -25.363 H 1 NIL_1    0.000
150 H_18292 90.417 54.862 -26.816 H 1 NIL_1    0.000
151 H_18401 86.945 54.542 -26.577 H 1 NIL_1    0.000
152 H_18402 86.086 54.740 -28.101 H 1 NIL_1    0.000
153 H_18681 91.085 56.844 -33.719 H 1 NIL_1    0.000
154 H_18682 92.823 56.849 -33.392 H 1 NIL_1    0.000
155 HP 87.829 56.497 -28.849 H 1 NIL_1    0.000
156 H_18181 89.713 57.795 -29.172 H 1 NIL_1    0.000
157 H_18182 90.630 56.976 -27.904 H 1 NIL_1    0.000
158 H_18161 89.561 54.038 -30.431 H 1 NIL_1    0.000
159 H_18162 90.627 53.812 -29.030 H 1 NIL_1    0.000
160 HH 93.643 52.028 -24.486 H 1 NIL_1    0.000
161 HH 81.432 51.279 -25.287 H 1 NIL_1    0.000
162 HH 92.523 55.552 -28.869 H 1 NIL_1    0.000
@<TRIPOS>BOND
1 1 2 1 
2 3 1 1 
3 4 1 1 
4 5 10 1 
5 5 1 1 
6 5 162 1 
7 6 2 1 
8 7 3 1 
9 7 6 1 
10 7 155 1 
11 8 4 1 
12 9 4 2 
13 10 8 1 
14 11 6 1 
15 12 7 1 
16 13 8 1 
17 13 153 1 
18 13 154 1 
19 14 10 2 
20 15 11 2 
21 16 20 1 
22 16 11 1 
23 16 151 1 
24 16 152 1 
25 17 12 2 
26 18 12 1 
27 19 13 1 
28 20 25 1 
29 21 18 1 
30 21 27 1 
31 21 149 1 
32 21 150 1 
33 22 18 1 
34 22 28 1 
35 22 147 1 
36 22 148 1 
37 23 19 2 
38 23 146 1 
39 24 30 2 
40 24 19 1 
41 24 145 1 
42 25 31 1 
43 26 20 1 
44 26 33 1 
45 26 143 1 
46 26 144 1 
47 27 35 1 
48 28 141 1 
49 28 142 1 
50 29 23 1 
51 29 140 1 
52 30 37 1 
53 30 139 1 
54 31 138 1 
55 32 25 2 
56 33 136 1 
57 33 137 1 
58 34 27 2 
59 36 28 1 
60 37 29 2 
61 38 45 1 
62 38 31 1 
63 38 134 1 
64 38 135 1 
65 39 46 1 
66 39 31 1 
67 39 47 1 
68 40 33 1 
69 41 35 1 
70 41 49 1 
71 41 132 1 
72 41 133 1 
73 42 51 1 
74 42 35 1 
75 42 131 1 
76 43 36 1 
77 43 128 1 
78 43 129 1 
79 43 130 1 
80 44 37 1 
81 45 46 1 
82 46 126 1 
83 46 127 1 
84 48 40 1 
85 48 123 1 
86 48 124 1 
87 48 125 1 
88 50 42 1 
89 50 59 2 
90 51 49 1 
91 52 44 1 
92 52 118 1 
93 52 119 1 
94 52 120 1 
95 53 45 1 
96 54 63 1 
97 54 45 1 
98 54 161 1 
99 55 47 2 
100 56 60 1 
101 56 47 1 
102 56 116 1 
103 56 117 1 
104 57 49 1 
105 58 66 1 
106 58 49 1 
107 58 160 1 
108 60 50 1 
109 61 53 1 
110 62 53 2 
111 63 61 1 
112 64 57 1 
113 65 57 2 
114 66 64 1 
115 67 60 1 
116 67 72 1 
117 67 114 1 
118 67 115 1 
119 68 61 1 
120 68 112 1 
121 68 113 1 
122 69 63 2 
123 70 64 1 
124 70 74 1 
125 71 66 2 
126 73 68 1 
127 73 76 2 
128 73 77 1 
129 74 78 1 
130 75 72 1 
131 77 82 2 
132 79 84 1 
133 79 74 2 
134 79 104 1 
135 80 75 1 
136 81 76 1 
137 82 85 1 
138 83 78 2 
139 84 86 2 
140 84 97 1 
141 85 81 2 
142 86 88 1 
143 86 83 1 
144 87 85 1 
145 89 87 1 
146 89 96 1 
147 90 88 1 
148 91 90 1 
149 92 90 1 
150 93 90 1 
151 94 89 1 
152 95 89 1 
153 98 83 1 
154 99 82 1 
155 100 81 1 
156 101 80 1 
157 102 80 1 
158 103 80 1 
159 105 78 1 
160 106 77 1 
161 107 76 1 
162 108 72 1 
163 109 72 1 
164 110 70 1 
165 111 70 1 
166 121 51 1 
167 122 51 1 
168 156 3 1 
169 157 3 1 
170 158 2 1 
171 159 2 1 
@<TRIPOS>SUBSTRUCTURE
1 NIL_1 1 RESIDUE 1 A NIL 1
