@<TRIPOS>MOLECULE
NIL
162 171 1 0 0
POLYMER
CHARGES


@<TRIPOS>ATOM
1 CQ 89.0916 55.9869 -31.9822 C.3 1 NIL_1    0.000
2 C_1816 88.062 54.898 -32.315 C.3 1 NIL_1    0.000
3 C_1818 89.737 55.532 -30.666 C.3 1 NIL_1    0.000
4 C_1854 88.455 57.350 -31.836 C.2 1 NIL_1    0.000
5 NH 90.041 56.285 -33.042 N.am 1 NIL_1    0.000
6 N 87.660 54.306 -31.034 N.am 1 NIL_1    0.000
7 CP 88.717 54.562 -30.027 C.3 1 NIL_1    0.000
8 N 89.071 58.198 -32.694 N.am 1 NIL_1    0.000
9 O 87.554 57.640 -31.071 O.2 1 NIL_1    0.000
10 C_1856 90.036 57.576 -33.413 C.2 1 NIL_1    0.000
11 C_1841 86.502 53.615 -30.848 C.2 1 NIL_1    0.000
12 C_1838 89.452 53.295 -29.579 C.2 1 NIL_1    0.000
13 C_1868 88.780 59.641 -32.781 C.3 1 NIL_1    0.000
14 O 90.778 58.075 -34.235 O.2 1 NIL_1    0.000
15 O 85.754 53.378 -31.777 O.2 1 NIL_1    0.000
16 C_1840 86.165 53.192 -29.426 C.3 1 NIL_1    0.000
17 O 89.546 52.340 -30.327 O.2 1 NIL_1    0.000
18 N 90.038 53.270 -28.345 N.am 1 NIL_1    0.000
19 C_1869 88.436 60.101 -34.184 C.2 1 NIL_1    0.000
20 N 85.063 52.215 -29.321 N.am 1 NIL_1    0.000
21 C_1829 90.851 52.121 -27.882 C.3 1 NIL_1    0.000
22 C_1871 89.936 54.342 -27.333 C.3 1 NIL_1    0.000
23 C_2204 89.300 60.844 -34.882 C.2 1 NIL_1    0.000
24 C_2212 87.273 59.768 -34.750 C.2 1 NIL_1    0.000
25 C_1843 85.273 50.893 -29.581 C.2 1 NIL_1    0.000
26 C_1872 83.772 52.815 -28.923 C.3 1 NIL_1    0.000
27 C_1830 90.046 50.942 -27.350 C.2 1 NIL_1    0.000
28 C_1876 88.711 54.148 -26.421 C.3 1 NIL_1    0.000
29 C_2206 89.013 61.243 -36.122 C.2 1 NIL_1    0.000
30 C_2210 86.982 60.166 -35.989 C.2 1 NIL_1    0.000
31 AP 84.243 49.868 -29.103 C.3 1 NIL_1    0.000
32 O 86.287 50.526 -30.147 O.2 1 NIL_1    0.000
33 C_1879 83.569 52.939 -27.393 C.3 1 NIL_1    0.000
34 O 88.830 50.964 -27.326 O.2 1 NIL_1    0.000
35 N 90.750 49.862 -26.907 N.am 1 NIL_1    0.000
36 O 88.691 55.205 -25.440 O.3 1 NIL_1    0.000
37 C_2208 87.846 60.907 -36.692 C.2 1 NIL_1    0.000
38 C_1827 83.343 49.359 -30.246 C.3 1 NIL_1    0.000
39 N 84.876 48.672 -28.509 N.am 1 NIL_1    0.000
40 O 84.372 54.001 -26.821 O.3 1 NIL_1    0.000
41 C_1813 92.213 49.782 -26.808 C.3 1 NIL_1    0.000
42 BP 90.172 48.635 -26.308 C.3 1 NIL_1    0.000
43 C_1878 87.604 55.125 -24.495 C.3 1 NIL_1    0.000
44 O 87.477 61.273 -37.963 O.3 1 NIL_1    0.000
45 AQ 82.985 47.938 -29.790 C.3 1 NIL_1    0.000
46 C_1825 84.243 47.459 -29.046 C.3 1 NIL_1    0.000
47 C_1844 85.893 48.717 -27.609 C.2 1 NIL_1    0.000
48 C_1881 83.934 55.354 -27.087 C.3 1 NIL_1    0.000
49 BQ 92.558 48.289 -26.758 C.3 1 NIL_1    0.000
50 C_1833 89.030 48.028 -27.128 C.2 1 NIL_1    0.000
51 C_1815 91.330 47.628 -26.107 C.3 1 NIL_1    0.000
52 C_2271 88.349 62.121 -38.751 C.3 1 NIL_1    0.000
53 C_1846 82.524 47.022 -30.900 C.2 1 NIL_1    0.000
54 NH 81.792 47.921 -28.959 N.am 1 NIL_1    0.000
55 O 86.196 49.765 -27.068 O.2 1 NIL_1    0.000
56 C_1835 86.641 47.423 -27.312 C.3 1 NIL_1    0.000
57 C_1850 92.853 47.771 -28.151 C.2 1 NIL_1    0.000
58 NH 93.833 47.990 -26.127 N.am 1 NIL_1    0.000
59 O 89.161 47.893 -28.330 O.2 1 NIL_1    0.000
60 N 87.865 47.668 -26.501 N.am 1 NIL_1    0.000
61 N 81.245 46.653 -30.640 N.am 1 NIL_1    0.000
62 O 83.183 46.677 -31.863 O.2 1 NIL_1    0.000
63 C_1848 80.786 47.208 -29.489 C.2 1 NIL_1    0.000
64 N 94.140 47.351 -28.182 N.am 1 NIL_1    0.000
65 O 92.082 47.751 -29.091 O.2 1 NIL_1    0.000
66 C_1852 94.737 47.470 -26.974 C.2 1 NIL_1    0.000
67 C_1870 87.670 47.766 -25.025 C.3 1 NIL_1    0.000
68 C_1866 80.446 45.778 -31.522 C.3 1 NIL_1    0.000
69 O 79.675 47.100 -29.008 O.2 1 NIL_1    0.000
70 C_1864 94.830 46.865 -29.390 C.3 1 NIL_1    0.000
71 O 95.878 47.165 -26.692 O.2 1 NIL_1    0.000
72 C_1873 86.368 47.210 -24.400 C.3 1 NIL_1    0.000
73 C_1867 79.585 44.755 -30.801 C.2 1 NIL_1    0.000
74 C_1865 94.786 45.358 -29.513 C.2 1 NIL_1    0.000
75 O 85.256 48.064 -24.755 O.3 1 NIL_1    0.000
76 C_2172 80.141 43.812 -30.035 C.2 1 NIL_1    0.000
77 C_2180 78.253 44.789 -30.908 C.2 1 NIL_1    0.000
78 C_2196 93.669 44.748 -29.923 C.2 1 NIL_1    0.000
79 C_2188 95.855 44.612 -29.213 C.2 1 NIL_1    0.000
80 C_1875 83.943 47.566 -24.433 C.3 1 NIL_1    0.000
81 C_2174 79.382 42.925 -29.390 C.2 1 NIL_1    0.000
82 C_2178 77.492 43.903 -30.263 C.2 1 NIL_1    0.000
83 C_2194 93.627 43.421 -30.040 C.2 1 NIL_1    0.000
84 C_2190 95.811 43.282 -29.328 C.2 1 NIL_1    0.000
85 C_2176 78.050 42.956 -29.494 C.2 1 NIL_1    0.000
86 C_2192 94.693 42.675 -29.751 C.2 1 NIL_1    0.000
87 O 77.336 42.007 -28.803 O.3 1 NIL_1    0.000
88 O 94.587 41.315 -29.884 O.3 1 NIL_1    0.000
89 C_2273 75.887 42.060 -28.794 C.3 1 NIL_1    0.000
90 C_2269 95.688 40.620 -30.517 C.3 1 NIL_1    0.000
91 H_22691 95.399 39.575 -30.664 H 1 NIL_1    0.000
92 H_22692 96.571 40.659 -29.875 H 1 NIL_1    0.000
93 H_22693 95.903 41.082 -31.487 H 1 NIL_1    0.000
94 H_22731 75.560 43.011 -28.364 H 1 NIL_1    0.000
95 H_22732 75.508 41.237 -28.184 H 1 NIL_1    0.000
96 H_22733 75.508 41.956 -29.815 H 1 NIL_1    0.000
97 H_2190 96.694 42.706 -29.069 H 1 NIL_1    0.000
98 H_2194 92.712 42.943 -30.382 H 1 NIL_1    0.000
99 H_2178 76.414 43.973 -30.381 H 1 NIL_1    0.000
100 H_2174 79.860 42.169 -28.770 H 1 NIL_1    0.000
101 H_18751 83.862 47.433 -23.351 H 1 NIL_1    0.000
102 H_18752 83.778 46.613 -24.944 H 1 NIL_1    0.000
103 H_18753 83.202 48.295 -24.774 H 1 NIL_1    0.000
104 H_2188 96.772 45.086 -28.868 H 1 NIL_1    0.000
105 H_2196 92.784 45.335 -30.163 H 1 NIL_1    0.000
106 H_2180 77.776 45.549 -31.524 H 1 NIL_1    0.000
107 H_2172 81.224 43.768 -29.930 H 1 NIL_1    0.000
108 H_18731 86.187 46.186 -24.738 H 1 NIL_1    0.000
109 H_18732 86.456 47.213 -23.311 H 1 NIL_1    0.000
110 H_18641 95.868 47.208 -29.366 H 1 NIL_1    0.000
111 H_18642 94.366 47.313 -30.272 H 1 NIL_1    0.000
112 H_18661 81.122 45.243 -32.194 H 1 NIL_1    0.000
113 H_18662 79.815 46.422 -32.140 H 1 NIL_1    0.000
114 H_18701 87.745 48.820 -24.739 H 1 NIL_1    0.000
115 H_18702 88.502 47.236 -24.554 H 1 NIL_1    0.000
116 H_18351 85.957 46.725 -26.824 H 1 NIL_1    0.000
117 H_18352 86.913 46.976 -28.272 H 1 NIL_1    0.000
118 H_22711 89.309 61.620 -38.908 H 1 NIL_1    0.000
119 H_22712 88.501 63.072 -38.233 H 1 NIL_1    0.000
120 H_22713 87.874 62.306 -39.718 H 1 NIL_1    0.000
121 H_18151 91.502 47.503 -25.034 H 1 NIL_1    0.000
122 H_18152 91.118 46.642 -26.532 H 1 NIL_1    0.000
123 H_18811 84.081 55.588 -28.144 H 1 NIL_1    0.000
124 H_18812 84.522 56.044 -26.476 H 1 NIL_1    0.000
125 H_18813 82.875 55.454 -26.827 H 1 NIL_1    0.000
126 H_18251 83.984 46.772 -28.236 H 1 NIL_1    0.000
127 H_18252 84.937 46.975 -29.738 H 1 NIL_1    0.000
128 H_18781 87.688 55.954 -23.789 H 1 NIL_1    0.000
129 H_18782 87.663 54.176 -23.955 H 1 NIL_1    0.000
130 H_18783 86.650 55.191 -25.027 H 1 NIL_1    0.000
131 HP 89.804 48.929 -25.326 H 1 NIL_1    0.000
132 H_18131 92.518 50.278 -25.880 H 1 NIL_1    0.000
133 H_18132 92.706 50.264 -27.656 H 1 NIL_1    0.000
134 H_18271 82.459 49.984 -30.396 H 1 NIL_1    0.000
135 H_18272 83.910 49.315 -31.179 H 1 NIL_1    0.000
136 H_18791 82.517 53.148 -27.179 H 1 NIL_1    0.000
137 H_18792 83.843 52.001 -26.904 H 1 NIL_1    0.000
138 HP 83.617 50.312 -28.326 H 1 NIL_1    0.000
139 H_2210 86.030 59.882 -36.432 H 1 NIL_1    0.000
140 H_2206 89.751 61.841 -36.651 H 1 NIL_1    0.000
141 H_18761 87.794 54.191 -27.014 H 1 NIL_1    0.000
142 H_18762 88.768 53.185 -25.904 H 1 NIL_1    0.000
143 H_18721 82.965 52.198 -29.325 H 1 NIL_1    0.000
144 H_18722 83.676 53.798 -29.392 H 1 NIL_1    0.000
145 H_2212 86.554 59.163 -34.201 H 1 NIL_1    0.000
146 H_2204 90.253 61.125 -34.441 H 1 NIL_1    0.000
147 H_18711 89.871 55.315 -27.822 H 1 NIL_1    0.000
148 H_18712 90.841 54.357 -26.719 H 1 NIL_1    0.000
149 H_18291 91.530 52.433 -27.083 H 1 NIL_1    0.000
150 H_18292 91.460 51.758 -28.714 H 1 NIL_1    0.000
151 H_18401 87.051 52.744 -28.976 H 1 NIL_1    0.000
152 H_18402 85.925 54.100 -28.868 H 1 NIL_1    0.000
153 H_18681 89.661 60.179 -32.419 H 1 NIL_1    0.000
154 H_18682 87.952 59.889 -32.110 H 1 NIL_1    0.000
155 HP 88.242 55.038 -29.167 H 1 NIL_1    0.000
156 H_18181 89.961 56.374 -30.006 H 1 NIL_1    0.000
157 H_18182 90.677 55.016 -30.881 H 1 NIL_1    0.000
158 H_18161 87.202 55.316 -32.846 H 1 NIL_1    0.000
159 H_18162 88.520 54.114 -32.923 H 1 NIL_1    0.000
160 HH 94.012 48.166 -25.151 H 1 NIL_1    0.000
161 HH 81.721 48.442 -28.099 H 1 NIL_1    0.000
162 HH 90.688 55.601 -33.407 H 1 NIL_1    0.000
@<TRIPOS>BOND
1 1 2 1 
2 3 1 1 
3 4 1 1 
4 5 10 1 
5 5 1 1 
6 5 162 1 
7 6 2 1 
8 7 3 1 
9 7 6 1 
10 7 155 1 
11 8 4 1 
12 9 4 2 
13 10 8 1 
14 11 6 1 
15 12 7 1 
16 13 8 1 
17 13 153 1 
18 13 154 1 
19 14 10 2 
20 15 11 2 
21 16 20 1 
22 16 11 1 
23 16 151 1 
24 16 152 1 
25 17 12 2 
26 18 12 1 
27 19 13 1 
28 20 25 1 
29 21 18 1 
30 21 27 1 
31 21 149 1 
32 21 150 1 
33 22 18 1 
34 22 28 1 
35 22 147 1 
36 22 148 1 
37 23 19 2 
38 23 146 1 
39 24 30 2 
40 24 19 1 
41 24 145 1 
42 25 31 1 
43 26 20 1 
44 26 33 1 
45 26 143 1 
46 26 144 1 
47 27 35 1 
48 28 141 1 
49 28 142 1 
50 29 23 1 
51 29 140 1 
52 30 37 1 
53 30 139 1 
54 31 138 1 
55 32 25 2 
56 33 136 1 
57 33 137 1 
58 34 27 2 
59 36 28 1 
60 37 29 2 
61 38 45 1 
62 38 31 1 
63 38 134 1 
64 38 135 1 
65 39 46 1 
66 39 31 1 
67 39 47 1 
68 40 33 1 
69 41 35 1 
70 41 49 1 
71 41 132 1 
72 41 133 1 
73 42 51 1 
74 42 35 1 
75 42 131 1 
76 43 36 1 
77 43 128 1 
78 43 129 1 
79 43 130 1 
80 44 37 1 
81 45 46 1 
82 46 126 1 
83 46 127 1 
84 48 40 1 
85 48 123 1 
86 48 124 1 
87 48 125 1 
88 50 42 1 
89 50 59 2 
90 51 49 1 
91 52 44 1 
92 52 118 1 
93 52 119 1 
94 52 120 1 
95 53 45 1 
96 54 63 1 
97 54 45 1 
98 54 161 1 
99 55 47 2 
100 56 60 1 
101 56 47 1 
102 56 116 1 
103 56 117 1 
104 57 49 1 
105 58 66 1 
106 58 49 1 
107 58 160 1 
108 60 50 1 
109 61 53 1 
110 62 53 2 
111 63 61 1 
112 64 57 1 
113 65 57 2 
114 66 64 1 
115 67 60 1 
116 67 72 1 
117 67 114 1 
118 67 115 1 
119 68 61 1 
120 68 112 1 
121 68 113 1 
122 69 63 2 
123 70 64 1 
124 70 74 1 
125 71 66 2 
126 73 68 1 
127 73 76 2 
128 73 77 1 
129 74 78 1 
130 75 72 1 
131 77 82 2 
132 79 84 1 
133 79 74 2 
134 79 104 1 
135 80 75 1 
136 81 76 1 
137 82 85 1 
138 83 78 2 
139 84 86 2 
140 84 97 1 
141 85 81 2 
142 86 88 1 
143 86 83 1 
144 87 85 1 
145 89 87 1 
146 89 96 1 
147 90 88 1 
148 91 90 1 
149 92 90 1 
150 93 90 1 
151 94 89 1 
152 95 89 1 
153 98 83 1 
154 99 82 1 
155 100 81 1 
156 101 80 1 
157 102 80 1 
158 103 80 1 
159 105 78 1 
160 106 77 1 
161 107 76 1 
162 108 72 1 
163 109 72 1 
164 110 70 1 
165 111 70 1 
166 121 51 1 
167 122 51 1 
168 156 3 1 
169 157 3 1 
170 158 2 1 
171 159 2 1 
@<TRIPOS>SUBSTRUCTURE
1 NIL_1 1 RESIDUE 1 A NIL 1
