@<TRIPOS>MOLECULE
NIL
162 171 1 0 0
POLYMER
CHARGES


@<TRIPOS>ATOM
1 CQ 91.9378 56.4529 -27.1617 C.3 1 NIL_1    0.000
2 C_1816 91.448 54.998 -27.178 C.3 1 NIL_1    0.000
3 C_1818 91.327 57.076 -25.902 C.3 1 NIL_1    0.000
4 C_1854 91.494 57.237 -28.372 C.2 1 NIL_1    0.000
5 NH 93.378 56.596 -27.290 N.am 1 NIL_1    0.000
6 N 90.213 54.962 -26.384 N.am 1 NIL_1    0.000
7 CP 90.064 56.232 -25.646 C.3 1 NIL_1    0.000
8 N 92.599 57.753 -28.957 N.am 1 NIL_1    0.000
9 O 90.347 57.418 -28.734 O.2 1 NIL_1    0.000
10 C_1856 93.737 57.356 -28.338 C.2 1 NIL_1    0.000
11 C_1841 89.288 53.978 -26.504 C.2 1 NIL_1    0.000
12 C_1838 89.778 56.226 -24.145 C.2 1 NIL_1    0.000
13 C_1868 92.562 58.730 -30.056 C.3 1 NIL_1    0.000
14 O 94.877 57.636 -28.651 O.2 1 NIL_1    0.000
15 O 89.567 52.930 -27.058 O.2 1 NIL_1    0.000
16 C_1840 87.889 54.255 -25.964 C.3 1 NIL_1    0.000
17 O 88.991 57.061 -23.741 O.2 1 NIL_1    0.000
18 N 90.403 55.384 -23.257 N.am 1 NIL_1    0.000
19 C_1869 92.659 60.200 -29.662 C.2 1 NIL_1    0.000
20 N 86.951 53.139 -26.247 N.am 1 NIL_1    0.000
21 C_1829 91.064 54.075 -23.519 C.3 1 NIL_1    0.000
22 C_1871 90.413 55.710 -21.811 C.3 1 NIL_1    0.000
23 C_2204 92.889 60.604 -28.405 C.2 1 NIL_1    0.000
24 C_2212 92.517 61.133 -30.608 C.2 1 NIL_1    0.000
25 C_1843 86.796 52.053 -25.433 C.2 1 NIL_1    0.000
26 C_1872 86.331 53.145 -27.600 C.3 1 NIL_1    0.000
27 C_1830 92.580 54.119 -23.677 C.2 1 NIL_1    0.000
28 C_1876 91.729 56.360 -21.327 C.3 1 NIL_1    0.000
29 C_2206 92.979 61.901 -28.111 C.2 1 NIL_1    0.000
30 C_2210 92.606 62.433 -30.316 C.2 1 NIL_1    0.000
31 AP 87.444 52.068 -24.050 C.3 1 NIL_1    0.000
32 O 86.129 51.099 -25.791 O.2 1 NIL_1    0.000
33 C_1879 86.611 54.360 -28.521 C.3 1 NIL_1    0.000
34 O 93.149 55.132 -24.032 O.2 1 NIL_1    0.000
35 N 93.308 52.993 -23.431 N.am 1 NIL_1    0.000
36 O 92.173 57.409 -22.222 O.3 1 NIL_1    0.000
37 C_2208 92.842 62.831 -29.058 C.2 1 NIL_1    0.000
38 C_1827 86.433 52.542 -22.983 C.3 1 NIL_1    0.000
39 N 88.007 50.785 -23.592 N.am 1 NIL_1    0.000
40 O 85.968 54.184 -29.804 O.3 1 NIL_1    0.000
41 C_1813 94.773 52.958 -23.558 C.3 1 NIL_1    0.000
42 BP 92.855 51.736 -22.785 C.3 1 NIL_1    0.000
43 C_1878 91.548 58.700 -22.065 C.3 1 NIL_1    0.000
44 O 92.958 64.143 -28.668 O.3 1 NIL_1    0.000
45 AQ 86.295 51.343 -22.032 C.3 1 NIL_1    0.000
46 C_1825 87.629 50.606 -22.184 C.3 1 NIL_1    0.000
47 C_1844 88.929 50.063 -24.281 C.2 1 NIL_1    0.000
48 C_1881 86.641 53.314 -30.740 C.3 1 NIL_1    0.000
49 BQ 95.182 51.483 -23.506 C.3 1 NIL_1    0.000
50 C_1833 91.744 50.984 -23.515 C.2 1 NIL_1    0.000
51 C_1815 94.095 50.819 -22.651 C.3 1 NIL_1    0.000
52 C_2271 92.809 65.203 -29.641 C.3 1 NIL_1    0.000
53 C_1846 85.134 50.441 -22.394 C.2 1 NIL_1    0.000
54 NH 85.917 51.675 -20.670 N.am 1 NIL_1    0.000
55 O 89.015 50.125 -25.492 O.2 1 NIL_1    0.000
56 C_1835 89.936 49.264 -23.476 C.3 1 NIL_1    0.000
57 C_1850 95.264 50.900 -24.901 C.2 1 NIL_1    0.000
58 NH 96.546 51.231 -23.066 N.am 1 NIL_1    0.000
59 O 91.631 51.102 -24.720 O.2 1 NIL_1    0.000
60 N 90.934 50.131 -22.807 N.am 1 NIL_1    0.000
61 N 84.286 50.391 -21.338 N.am 1 NIL_1    0.000
62 O 85.000 49.831 -23.437 O.2 1 NIL_1    0.000
63 C_1848 84.754 51.115 -20.291 C.2 1 NIL_1    0.000
64 N 96.525 50.450 -25.095 N.am 1 NIL_1    0.000
65 O 94.367 50.852 -25.719 O.2 1 NIL_1    0.000
66 C_1852 97.302 50.630 -24.002 C.2 1 NIL_1    0.000
67 C_1870 90.957 49.936 -21.339 C.3 1 NIL_1    0.000
68 C_1866 83.057 49.571 -21.278 C.3 1 NIL_1    0.000
69 O 84.235 51.242 -19.200 O.2 1 NIL_1    0.000
70 C_1864 97.003 49.865 -26.358 C.3 1 NIL_1    0.000
71 O 98.467 50.308 -23.877 O.2 1 NIL_1    0.000
72 C_1873 91.823 48.742 -20.911 C.3 1 NIL_1    0.000
73 C_1867 82.199 49.519 -22.530 C.2 1 NIL_1    0.000
74 C_1865 97.224 48.362 -26.360 C.2 1 NIL_1    0.000
75 O 92.059 48.844 -19.493 O.3 1 NIL_1    0.000
76 C_2172 81.469 50.575 -22.901 C.2 1 NIL_1    0.000
77 C_2180 82.150 48.414 -23.280 C.2 1 NIL_1    0.000
78 C_2196 96.478 47.533 -25.619 C.2 1 NIL_1    0.000
79 C_2188 98.172 47.841 -27.142 C.2 1 NIL_1    0.000
80 C_1875 92.963 47.855 -18.963 C.3 1 NIL_1    0.000
81 C_2174 80.716 50.529 -24.002 C.2 1 NIL_1    0.000
82 C_2178 81.400 48.365 -24.383 C.2 1 NIL_1    0.000
83 C_2194 96.685 46.215 -25.654 C.2 1 NIL_1    0.000
84 C_2190 98.378 46.524 -27.181 C.2 1 NIL_1    0.000
85 C_2176 80.676 49.429 -24.759 C.2 1 NIL_1    0.000
86 C_2192 97.645 45.699 -26.432 C.2 1 NIL_1    0.000
87 O 79.886 49.458 -25.883 O.3 1 NIL_1    0.000
88 O 97.898 44.354 -26.514 O.3 1 NIL_1    0.000
89 C_2273 80.050 48.434 -26.897 C.3 1 NIL_1    0.000
90 C_2269 97.814 43.569 -25.298 C.3 1 NIL_1    0.000
91 H_22691 98.192 42.565 -25.505 H 1 NIL_1    0.000
92 H_22692 96.776 43.498 -24.966 H 1 NIL_1    0.000
93 H_22693 98.427 44.032 -24.520 H 1 NIL_1    0.000
94 H_22731 79.412 48.683 -27.750 H 1 NIL_1    0.000
95 H_22732 79.750 47.463 -26.493 H 1 NIL_1    0.000
96 H_22733 81.094 48.403 -27.223 H 1 NIL_1    0.000
97 H_2190 99.154 46.126 -27.830 H 1 NIL_1    0.000
98 H_2194 96.056 45.571 -25.047 H 1 NIL_1    0.000
99 H_2178 81.394 47.442 -24.957 H 1 NIL_1    0.000
100 H_2174 80.131 51.401 -24.286 H 1 NIL_1    0.000
101 H_18751 92.525 46.860 -19.079 H 1 NIL_1    0.000
102 H_18752 93.132 48.063 -17.904 H 1 NIL_1    0.000
103 H_18753 93.912 47.910 -19.505 H 1 NIL_1    0.000
104 H_2188 98.784 48.492 -27.763 H 1 NIL_1    0.000
105 H_2196 95.688 47.926 -24.983 H 1 NIL_1    0.000
106 H_2180 82.730 47.538 -22.997 H 1 NIL_1    0.000
107 H_2172 81.486 51.484 -22.304 H 1 NIL_1    0.000
108 H_18731 91.312 47.802 -21.133 H 1 NIL_1    0.000
109 H_18732 92.785 48.761 -21.424 H 1 NIL_1    0.000
110 H_18641 97.942 50.368 -26.609 H 1 NIL_1    0.000
111 H_18642 96.291 50.110 -27.151 H 1 NIL_1    0.000
112 H_18661 82.434 49.949 -20.464 H 1 NIL_1    0.000
113 H_18662 83.354 48.555 -21.004 H 1 NIL_1    0.000
114 H_18701 89.946 49.754 -20.975 H 1 NIL_1    0.000
115 H_18702 91.297 50.838 -20.830 H 1 NIL_1    0.000
116 H_18351 89.391 48.653 -22.751 H 1 NIL_1    0.000
117 H_18352 90.457 48.591 -24.162 H 1 NIL_1    0.000
118 H_22711 92.940 66.162 -29.132 H 1 NIL_1    0.000
119 H_22712 91.809 65.159 -30.078 H 1 NIL_1    0.000
120 H_22713 93.570 65.099 -30.418 H 1 NIL_1    0.000
121 H_18151 94.408 50.787 -21.604 H 1 NIL_1    0.000
122 H_18152 93.906 49.797 -22.986 H 1 NIL_1    0.000
123 H_18811 87.635 53.713 -30.962 H 1 NIL_1    0.000
124 H_18812 86.054 53.270 -31.660 H 1 NIL_1    0.000
125 H_18813 86.731 52.312 -30.315 H 1 NIL_1    0.000
126 H_18251 88.381 51.091 -21.558 H 1 NIL_1    0.000
127 H_18252 87.535 49.549 -21.921 H 1 NIL_1    0.000
128 H_18781 92.032 59.410 -22.741 H 1 NIL_1    0.000
129 H_18782 91.675 59.040 -21.034 H 1 NIL_1    0.000
130 H_18783 90.487 58.631 -22.307 H 1 NIL_1    0.000
131 HP 92.507 52.017 -21.792 H 1 NIL_1    0.000
132 H_18131 95.204 53.500 -22.711 H 1 NIL_1    0.000
133 H_18132 95.097 53.425 -24.492 H 1 NIL_1    0.000
134 H_18271 86.852 53.404 -22.457 H 1 NIL_1    0.000
135 H_18272 85.471 52.838 -23.410 H 1 NIL_1    0.000
136 H_18791 86.199 55.265 -28.066 H 1 NIL_1    0.000
137 H_18792 87.685 54.489 -28.681 H 1 NIL_1    0.000
138 HP 88.303 52.737 -24.053 H 1 NIL_1    0.000
139 H_2210 92.485 63.149 -31.124 H 1 NIL_1    0.000
140 H_2206 93.169 62.200 -27.082 H 1 NIL_1    0.000
141 H_18761 91.595 56.774 -20.324 H 1 NIL_1    0.000
142 H_18762 92.512 55.599 -21.293 H 1 NIL_1    0.000
143 H_18721 85.249 53.057 -27.464 H 1 NIL_1    0.000
144 H_18722 86.678 52.244 -28.112 H 1 NIL_1    0.000
145 H_2212 92.328 60.836 -31.636 H 1 NIL_1    0.000
146 H_2204 93.010 59.888 -27.596 H 1 NIL_1    0.000
147 H_18711 90.239 54.799 -21.235 H 1 NIL_1    0.000
148 H_18712 89.589 56.385 -21.569 H 1 NIL_1    0.000
149 H_18291 90.651 53.590 -24.398 H 1 NIL_1    0.000
150 H_18292 90.841 53.410 -22.682 H 1 NIL_1    0.000
151 H_18401 87.947 54.455 -24.894 H 1 NIL_1    0.000
152 H_18402 87.538 55.189 -26.405 H 1 NIL_1    0.000
153 H_18681 91.631 58.583 -30.610 H 1 NIL_1    0.000
154 H_18682 93.380 58.495 -30.742 H 1 NIL_1    0.000
155 HP 89.221 56.756 -26.109 H 1 NIL_1    0.000
156 H_18181 91.082 58.134 -26.030 H 1 NIL_1    0.000
157 H_18182 92.025 57.009 -25.067 H 1 NIL_1    0.000
158 H_18161 91.257 54.670 -28.204 H 1 NIL_1    0.000
159 H_18162 92.185 54.338 -26.713 H 1 NIL_1    0.000
160 HH 96.875 51.477 -22.144 H 1 NIL_1    0.000
161 HH 86.486 52.254 -20.071 H 1 NIL_1    0.000
162 HH 94.029 56.136 -26.672 H 1 NIL_1    0.000
@<TRIPOS>BOND
1 1 2 1 
2 3 1 1 
3 4 1 1 
4 5 10 1 
5 5 1 1 
6 5 162 1 
7 6 2 1 
8 7 3 1 
9 7 6 1 
10 7 155 1 
11 8 4 1 
12 9 4 2 
13 10 8 1 
14 11 6 1 
15 12 7 1 
16 13 8 1 
17 13 153 1 
18 13 154 1 
19 14 10 2 
20 15 11 2 
21 16 20 1 
22 16 11 1 
23 16 151 1 
24 16 152 1 
25 17 12 2 
26 18 12 1 
27 19 13 1 
28 20 25 1 
29 21 18 1 
30 21 27 1 
31 21 149 1 
32 21 150 1 
33 22 18 1 
34 22 28 1 
35 22 147 1 
36 22 148 1 
37 23 19 2 
38 23 146 1 
39 24 30 2 
40 24 19 1 
41 24 145 1 
42 25 31 1 
43 26 20 1 
44 26 33 1 
45 26 143 1 
46 26 144 1 
47 27 35 1 
48 28 141 1 
49 28 142 1 
50 29 23 1 
51 29 140 1 
52 30 37 1 
53 30 139 1 
54 31 138 1 
55 32 25 2 
56 33 136 1 
57 33 137 1 
58 34 27 2 
59 36 28 1 
60 37 29 2 
61 38 45 1 
62 38 31 1 
63 38 134 1 
64 38 135 1 
65 39 46 1 
66 39 31 1 
67 39 47 1 
68 40 33 1 
69 41 35 1 
70 41 49 1 
71 41 132 1 
72 41 133 1 
73 42 51 1 
74 42 35 1 
75 42 131 1 
76 43 36 1 
77 43 128 1 
78 43 129 1 
79 43 130 1 
80 44 37 1 
81 45 46 1 
82 46 126 1 
83 46 127 1 
84 48 40 1 
85 48 123 1 
86 48 124 1 
87 48 125 1 
88 50 42 1 
89 50 59 2 
90 51 49 1 
91 52 44 1 
92 52 118 1 
93 52 119 1 
94 52 120 1 
95 53 45 1 
96 54 63 1 
97 54 45 1 
98 54 161 1 
99 55 47 2 
100 56 60 1 
101 56 47 1 
102 56 116 1 
103 56 117 1 
104 57 49 1 
105 58 66 1 
106 58 49 1 
107 58 160 1 
108 60 50 1 
109 61 53 1 
110 62 53 2 
111 63 61 1 
112 64 57 1 
113 65 57 2 
114 66 64 1 
115 67 60 1 
116 67 72 1 
117 67 114 1 
118 67 115 1 
119 68 61 1 
120 68 112 1 
121 68 113 1 
122 69 63 2 
123 70 64 1 
124 70 74 1 
125 71 66 2 
126 73 68 1 
127 73 76 2 
128 73 77 1 
129 74 78 1 
130 75 72 1 
131 77 82 2 
132 79 84 1 
133 79 74 2 
134 79 104 1 
135 80 75 1 
136 81 76 1 
137 82 85 1 
138 83 78 2 
139 84 86 2 
140 84 97 1 
141 85 81 2 
142 86 88 1 
143 86 83 1 
144 87 85 1 
145 89 87 1 
146 89 96 1 
147 90 88 1 
148 91 90 1 
149 92 90 1 
150 93 90 1 
151 94 89 1 
152 95 89 1 
153 98 83 1 
154 99 82 1 
155 100 81 1 
156 101 80 1 
157 102 80 1 
158 103 80 1 
159 105 78 1 
160 106 77 1 
161 107 76 1 
162 108 72 1 
163 109 72 1 
164 110 70 1 
165 111 70 1 
166 121 51 1 
167 122 51 1 
168 156 3 1 
169 157 3 1 
170 158 2 1 
171 159 2 1 
@<TRIPOS>SUBSTRUCTURE
1 NIL_1 1 RESIDUE 1 A NIL 1
