@<TRIPOS>MOLECULE
NIL
32 31 1 0 0
POLYMER
CHARGES


@<TRIPOS>ATOM
      1 C6        110.0820   74.9740    0.0820 C.3       1 NIL    0.0000
      2 C5        110.8470   76.2700    0.3280 C.2       1 NIL    0.0000
      3 C8        113.2750   80.9040   -0.0160 C.3       1 NIL    0.0000
      4 O2        111.3990   76.4560    1.3980 O.2       1 NIL    0.0000
      5 N         110.8880   77.2250   -0.6500 N.am      1 NIL    0.0000
      6 N1        111.8790   80.7000    0.4290 N.am      1 NIL    0.0000
      7 C1        111.7420   78.4190   -0.4990 C.3       1 NIL    0.0000
      8 C2        110.2880   77.1440   -2.0000 C.3       1 NIL    0.0000
      9 C7        111.3730   81.9500    1.0130 C.3       1 NIL    0.0000
     10 C         111.1230   79.5760    0.2770 C.2       1 NIL    0.0000
     11 C3        108.9610   77.9090   -2.1270 C.3       1 NIL    0.0000
     12 O         109.9950   79.5140    0.7280 O.2       1 NIL    0.0000
     13 O1        108.6190   77.9190   -3.5280 O.3       1 NIL    0.0000
     14 C4        107.3390   78.4970   -3.8510 C.3       1 NIL    0.0000
     15 H1C4      107.2560   78.5790   -4.9380 H         1 NIL    0.0000
     16 H2C4      107.2640   79.4900   -3.4000 H         1 NIL    0.0000
     17 H3C4      106.5460   77.8490   -3.4650 H         1 NIL    0.0000
     18 H1C3      108.1690   77.4190   -1.5540 H         1 NIL    0.0000
     19 H2C3      109.0710   78.9420   -1.7850 H         1 NIL    0.0000
     20 H1C7      111.3410   81.8380    2.1000 H         1 NIL    0.0000
     21 H2C7      110.3720   82.1790    0.6380 H         1 NIL    0.0000
     22 H1C2      110.1220   76.1120   -2.3030 H         1 NIL    0.0000
     23 H2C2      110.9920   77.5590   -2.7270 H         1 NIL    0.0000
     24 H1C1      112.0440   78.8080   -1.4740 H         1 NIL    0.0000
     25 H2C1      112.6430   78.0990    0.0220 H         1 NIL    0.0000
     26 H1C8      113.2450   80.8540   -1.1060 H         1 NIL    0.0000
     27 H1C6      110.1060   74.7130   -0.9730 H         1 NIL    0.0000
     28 H2C6      109.0463   75.1036    0.3960 H         1 NIL    0.0000
     29 H3C6      110.5369   74.1712    0.6623 H         1 NIL    0.0000
     30 H2C8      113.6400   81.8778    0.3104 H         1 NIL    0.0000
     31 H3C8      113.9133   80.1132    0.3780 H         1 NIL    0.0000
     32 H3C7      112.0484   82.7659    0.7557 H         1 NIL    0.0000
@<TRIPOS>BOND
     1    1   27 1
     2    2    1 1
     3    2    4 2
     4    2    5 1
     5    3   26 1
     6    6    9 1
     7    6   10 1
     8    6    3 1
     9    7    5 1
    10    7   10 1
    11    8    5 1
    12    9   20 1
    13    9   21 1
    14   11    8 1
    15   12   10 2
    16   13   11 1
    17   14   13 1
    18   15   14 1
    19   16   14 1
    20   17   14 1
    21   18   11 1
    22   19   11 1
    23   22    8 1
    24   23    8 1
    25   24    7 1
    26   25    7 1
    27   28    1 1
    28   29    1 1
    29   30    3 1
    30   31    3 1
    31   32    9 1
@<TRIPOS>SUBSTRUCTURE
     1 NIL     1 RESIDUE           4 A     NIL     0 ROOT
