@<TRIPOS>MOLECULE
NIL
58 61 1 0 0
POLYMER
CHARGES


@<TRIPOS>ATOM
1 O 166.519 56.2969 -2.4785 O.2 1 NIL_1    0.000
2 C_2304 165.922 56.660 -1.480 C.2 1 NIL_1    0.000
3 C_2302 166.524 57.709 -0.538 C.3 1 NIL_1    0.000
4 N 164.689 56.147 -1.193 N.am 1 NIL_1    0.000
5 N 167.929 58.047 -0.840 N.am 1 NIL_1    0.000
6 C_2303 165.743 59.038 -0.567 C.3 1 NIL_1    0.000
7 C_2316 163.980 55.256 -2.128 C.3 1 NIL_1    0.000
8 C_2336 163.908 56.402 0.032 C.3 1 NIL_1    0.000
9 C_2300 168.026 59.439 -1.313 C.3 1 NIL_1    0.000
10 C_2313 168.977 57.199 -0.659 C.2 1 NIL_1    0.000
11 C_2299 166.594 60.049 -1.375 C.3 1 NIL_1    0.000
12 C_2314 170.367 57.737 -0.939 C.3 1 NIL_1    0.000
13 O 168.812 56.056 -0.276 O.2 1 NIL_1    0.000
14 C_2306 166.093 59.957 -2.824 C.2 1 NIL_1    0.000
15 N 166.457 61.410 -0.759 N.am 1 NIL_1    0.000
16 O 166.308 58.992 -3.531 O.2 1 NIL_1    0.000
17 N 165.334 60.968 -3.298 N.am 1 NIL_1    0.000
18 C_2380 167.126 61.602 0.554 C.3 1 NIL_1    0.000
19 C_2416 165.677 62.408 -1.258 C.2 1 NIL_1    0.000
20 C_2406 165.110 62.252 -2.650 C.3 1 NIL_1    0.000
21 C_2422 164.326 60.815 -4.358 C.3 1 NIL_1    0.000
22 C_2434 168.253 62.626 0.535 C.2 1 NIL_1    0.000
23 O 165.462 63.428 -0.631 O.2 1 NIL_1    0.000
24 C_2426 163.600 62.492 -2.761 C.3 1 NIL_1    0.000
25 C_2424 163.289 61.938 -4.159 C.3 1 NIL_1    0.000
26 C_2436 169.023 62.817 -0.547 C.2 1 NIL_1    0.000
27 C_2444 168.488 63.370 1.623 C.2 1 NIL_1    0.000
28 C_2438 169.994 63.733 -0.542 C.2 1 NIL_1    0.000
29 C_2442 169.459 64.285 1.632 C.2 1 NIL_1    0.000
30 C_2440 170.213 64.469 0.547 C.2 1 NIL_1    0.000
31 H_2440 171.003 65.217 0.550 H 1 NIL_1    0.000
32 H_2442 169.634 64.881 2.522 H 1 NIL_1    0.000
33 H_2438 170.605 63.879 -1.427 H 1 NIL_1    0.000
34 H_2444 167.880 63.234 2.514 H 1 NIL_1    0.000
35 H_2436 168.863 62.232 -1.450 H 1 NIL_1    0.000
36 H_24241 162.265 61.564 -4.232 H 1 NIL_1    0.000
37 H_24242 163.438 62.718 -4.909 H 1 NIL_1    0.000
38 H_24261 163.332 63.545 -2.659 H 1 NIL_1    0.000
39 H_24262 163.070 61.909 -2.004 H 1 NIL_1    0.000
40 H_24221 163.840 59.841 -4.255 H 1 NIL_1    0.000
41 H_24222 164.800 60.887 -5.339 H 1 NIL_1    0.000
42 H_2406 165.627 63.002 -3.255 H 1 NIL_1    0.000
43 H_23801 167.503 60.655 0.946 H 1 NIL_1    0.000
44 H_23802 166.360 61.932 1.262 H 1 NIL_1    0.000
45 H_23141 171.121 56.972 -0.738 H 1 NIL_1    0.000
46 H_23142 170.581 58.600 -0.304 H 1 NIL_1    0.000
47 H_23143 170.455 58.042 -1.983 H 1 NIL_1    0.000
48 H_23001 168.498 59.459 -2.300 H 1 NIL_1    0.000
49 H_23002 168.676 59.985 -0.629 H 1 NIL_1    0.000
50 H_23361 163.215 57.229 -0.145 H 1 NIL_1    0.000
51 H_23362 164.559 56.650 0.872 H 1 NIL_1    0.000
52 H_23363 163.337 55.510 0.302 H 1 NIL_1    0.000
53 H_23161 162.931 55.145 -1.840 H 1 NIL_1    0.000
54 H_23162 164.458 54.274 -2.129 H 1 NIL_1    0.000
55 H_23163 164.017 55.685 -3.134 H 1 NIL_1    0.000
56 H_23031 164.741 58.929 -0.992 H 1 NIL_1    0.000
57 H_23032 165.611 59.373 0.464 H 1 NIL_1    0.000
58 H_2302 166.487 57.293 0.472 H 1 NIL_1    0.000
@<TRIPOS>BOND
1 1 2 2 
2 2 3 1 
3 3 5 1 
4 4 2 1 
5 5 9 1 
6 6 3 1 
7 6 11 1 
8 7 4 1 
9 8 4 1 
10 9 11 1 
11 10 5 1 
12 12 10 1 
13 13 10 2 
14 14 11 1 
15 15 11 1 
16 16 14 2 
17 17 14 1 
18 18 15 1 
19 19 15 1 
20 19 20 1 
21 20 17 1 
22 21 17 1 
23 22 18 1 
24 23 19 2 
25 24 25 1 
26 24 20 1 
27 25 21 1 
28 26 22 2 
29 27 29 2 
30 27 22 1 
31 28 26 1 
32 29 30 1 
33 30 28 2 
34 31 30 1 
35 32 29 1 
36 33 28 1 
37 34 27 1 
38 35 26 1 
39 36 25 1 
40 37 25 1 
41 38 24 1 
42 39 24 1 
43 40 21 1 
44 41 21 1 
45 42 20 1 
46 43 18 1 
47 44 18 1 
48 45 12 1 
49 46 12 1 
50 47 12 1 
51 48 9 1 
52 49 9 1 
53 50 8 1 
54 51 8 1 
55 52 8 1 
56 53 7 1 
57 54 7 1 
58 55 7 1 
59 56 6 1 
60 57 6 1 
61 58 3 1 
@<TRIPOS>SUBSTRUCTURE
1 NIL_1 1 RESIDUE 1 A NIL 1
