@<TRIPOS>MOLECULE
NIL
48 50 1 0 0
POLYMER
CHARGES


@<TRIPOS>ATOM
1 C_2316 158.03 48.0533 0.502656 C.3 1 NIL_1    0.000
2 N 158.570 48.986 1.509 N.am 1 NIL_1    0.000
3 C_2304 159.748 49.643 1.310 C.2 1 NIL_1    0.000
4 C_2336 157.684 49.161 2.676 C.3 1 NIL_1    0.000
5 C_2302 160.172 50.712 2.321 C.3 1 NIL_1    0.000
6 O 160.431 49.394 0.333 O.2 1 NIL_1    0.000
7 N 161.564 51.166 2.148 N.am 1 NIL_1    0.000
8 C_2303 159.275 51.965 2.245 C.3 1 NIL_1    0.000
9 C_2300 161.595 52.587 1.769 C.3 1 NIL_1    0.000
10 C_2313 162.651 50.380 2.368 C.2 1 NIL_1    0.000
11 C_2299 160.138 53.099 1.629 C.3 1 NIL_1    0.000
12 C_2314 164.018 51.011 2.190 C.3 1 NIL_1    0.000
13 O 162.539 49.218 2.707 O.2 1 NIL_1    0.000
14 C_2306 159.798 53.127 0.129 C.2 1 NIL_1    0.000
15 N 159.921 54.401 2.342 N.am 1 NIL_1    0.000
16 O 159.870 52.135 -0.573 O.2 1 NIL_1    0.000
17 N 159.358 54.285 -0.401 N.am 1 NIL_1    0.000
18 C_2380 160.183 54.377 3.801 C.3 1 NIL_1    0.000
19 C_2416 159.540 55.567 1.751 C.2 1 NIL_1    0.000
20 C_2406 159.417 55.589 0.243 C.3 1 NIL_1    0.000
21 C_2422 158.634 54.415 -1.673 C.3 1 NIL_1    0.000
22 O 159.321 56.571 2.401 O.2 1 NIL_1    0.000
23 C_2426 158.210 56.366 -0.307 C.3 1 NIL_1    0.000
24 C_2424 158.134 55.867 -1.758 C.3 1 NIL_1    0.000
25 H_24241 157.122 55.930 -2.168 H 1 NIL_1    0.000
26 H_24242 158.814 56.454 -2.382 H 1 NIL_1    0.000
27 H_24261 158.343 57.450 -0.247 H 1 NIL_1    0.000
28 H_24262 157.300 56.083 0.230 H 1 NIL_1    0.000
29 H_24221 157.781 53.728 -1.668 H 1 NIL_1    0.000
30 H_24222 159.293 54.179 -2.511 H 1 NIL_1    0.000
31 H_2406 160.330 56.070 -0.117 H 1 NIL_1    0.000
32 H_23801 160.715 53.472 4.101 H 1 NIL_1    0.000
33 H_23802 159.234 54.422 4.339 H 1 NIL_1    0.000
34 H_23803 160.792 55.242 4.081 H 1 NIL_1    0.000
35 H_23141 164.114 51.902 2.815 H 1 NIL_1    0.000
36 H_23142 164.179 51.295 1.147 H 1 NIL_1    0.000
37 H_23143 164.801 50.306 2.479 H 1 NIL_1    0.000
38 H_23001 162.137 52.706 0.828 H 1 NIL_1    0.000
39 H_23002 162.136 53.138 2.541 H 1 NIL_1    0.000
40 H_23031 158.369 51.792 1.656 H 1 NIL_1    0.000
41 H_23032 158.938 52.205 3.255 H 1 NIL_1    0.000
42 H_2302 160.090 50.269 3.316 H 1 NIL_1    0.000
43 H_23361 157.059 50.044 2.527 H 1 NIL_1    0.000
44 H_23362 158.272 49.276 3.589 H 1 NIL_1    0.000
45 H_23363 157.037 48.291 2.804 H 1 NIL_1    0.000
46 H_23161 157.788 48.611 -0.407 H 1 NIL_1    0.000
47 H_23162 157.125 47.558 0.862 H 1 NIL_1    0.000
48 H_23163 158.779 47.290 0.272 H 1 NIL_1    0.000
@<TRIPOS>BOND
1 1 2 1 
2 2 3 1 
3 4 2 1 
4 5 7 1 
5 5 8 1 
6 5 3 1 
7 5 42 1 
8 6 3 2 
9 7 9 1 
10 7 10 1 
11 9 11 1 
12 9 38 1 
13 9 39 1 
14 11 8 1 
15 11 14 1 
16 11 15 1 
17 12 10 1 
18 13 10 2 
19 16 14 2 
20 17 14 1 
21 18 15 1 
22 19 15 1 
23 19 20 1 
24 20 17 1 
25 21 17 1 
26 22 19 2 
27 23 24 1 
28 23 20 1 
29 24 21 1 
30 25 24 1 
31 26 24 1 
32 27 23 1 
33 28 23 1 
34 29 21 1 
35 30 21 1 
36 31 20 1 
37 32 18 1 
38 33 18 1 
39 34 18 1 
40 35 12 1 
41 36 12 1 
42 37 12 1 
43 40 8 1 
44 41 8 1 
45 43 4 1 
46 44 4 1 
47 45 4 1 
48 46 1 1 
49 47 1 1 
50 48 1 1 
@<TRIPOS>SUBSTRUCTURE
1 NIL_1 1 RESIDUE 1 A NIL 1
