@<TRIPOS>MOLECULE
NIL
58 61 1 0 0
POLYMER
CHARGES


@<TRIPOS>ATOM
1 N 166.715 56.8084 -0.47189 N.am 1 NIL_1    0.000
2 C_2300 167.585 57.973 -0.253 C.3 1 NIL_1    0.000
3 C_2302 165.859 57.087 -1.642 C.3 1 NIL_1    0.000
4 C_2313 166.706 55.705 0.322 C.2 1 NIL_1    0.000
5 C_2299 166.931 59.189 -0.978 C.3 1 NIL_1    0.000
6 C_2303 166.285 58.467 -2.182 C.3 1 NIL_1    0.000
7 C_2304 165.803 56.048 -2.763 C.2 1 NIL_1    0.000
8 C_2314 165.640 54.654 0.073 C.3 1 NIL_1    0.000
9 O 167.513 55.573 1.222 O.2 1 NIL_1    0.000
10 C_2306 165.782 59.736 -0.113 C.2 1 NIL_1    0.000
11 N 167.821 60.308 -1.453 N.am 1 NIL_1    0.000
12 O 164.725 55.810 -3.272 O.2 1 NIL_1    0.000
13 N 166.924 55.373 -3.162 N.am 1 NIL_1    0.000
14 O 165.297 59.134 0.827 O.2 1 NIL_1    0.000
15 N 165.340 60.972 -0.437 N.am 1 NIL_1    0.000
16 C_2380 169.293 60.071 -1.524 C.3 1 NIL_1    0.000
17 C_2416 167.287 61.490 -1.890 C.2 1 NIL_1    0.000
18 C_2316 168.314 55.670 -2.768 C.3 1 NIL_1    0.000
19 C_2336 166.875 54.272 -4.140 C.3 1 NIL_1    0.000
20 C_2406 165.818 61.736 -1.587 C.3 1 NIL_1    0.000
21 C_2422 164.369 61.770 0.323 C.3 1 NIL_1    0.000
22 C_2386 170.173 61.213 -1.042 C.2 1 NIL_1    0.000
23 O 167.946 62.328 -2.478 O.2 1 NIL_1    0.000
24 C_2426 165.453 63.203 -1.304 C.3 1 NIL_1    0.000
25 C_2424 164.190 63.092 -0.440 C.3 1 NIL_1    0.000
26 C_2388 171.205 61.633 -1.781 C.2 1 NIL_1    0.000
27 C_2396 169.932 61.814 0.130 C.2 1 NIL_1    0.000
28 C_2390 171.977 62.639 -1.364 C.2 1 NIL_1    0.000
29 C_2394 170.697 62.824 0.547 C.2 1 NIL_1    0.000
30 C_2392 171.721 63.236 -0.200 C.2 1 NIL_1    0.000
31 H_2392 172.349 64.057 0.141 H 1 NIL_1    0.000
32 H_2394 170.485 63.311 1.496 H 1 NIL_1    0.000
33 H_2390 172.814 62.973 -1.973 H 1 NIL_1    0.000
34 H_2396 169.102 61.486 0.752 H 1 NIL_1    0.000
35 H_2388 171.423 61.155 -2.734 H 1 NIL_1    0.000
36 H_24241 164.073 63.946 0.233 H 1 NIL_1    0.000
37 H_24242 163.308 63.023 -1.083 H 1 NIL_1    0.000
38 H_24261 165.273 63.767 -2.223 H 1 NIL_1    0.000
39 H_24262 166.247 63.687 -0.730 H 1 NIL_1    0.000
40 H_24221 164.776 61.962 1.321 H 1 NIL_1    0.000
41 H_24222 163.417 61.239 0.406 H 1 NIL_1    0.000
42 H_2406 165.259 61.392 -2.462 H 1 NIL_1    0.000
43 H_23361 165.865 53.861 -4.211 H 1 NIL_1    0.000
44 H_23362 167.554 53.476 -3.828 H 1 NIL_1    0.000
45 H_23363 167.186 54.647 -5.119 H 1 NIL_1    0.000
46 H_23161 168.495 56.746 -2.777 H 1 NIL_1    0.000
47 H_23162 169.014 55.211 -3.472 H 1 NIL_1    0.000
48 H_23163 168.509 55.268 -1.772 H 1 NIL_1    0.000
49 H_23801 169.532 59.836 -2.564 H 1 NIL_1    0.000
50 H_23802 169.605 59.223 -0.924 H 1 NIL_1    0.000
51 H_23141 164.654 55.113 -0.031 H 1 NIL_1    0.000
52 H_23142 165.596 53.948 0.905 H 1 NIL_1    0.000
53 H_23143 165.859 54.093 -0.835 H 1 NIL_1    0.000
54 H_23031 167.019 58.356 -2.984 H 1 NIL_1    0.000
55 H_23032 165.430 59.010 -2.595 H 1 NIL_1    0.000
56 H_2302 164.837 57.184 -1.263 H 1 NIL_1    0.000
57 H_23001 168.538 57.683 -0.692 H 1 NIL_1    0.000
58 H_23002 167.717 58.171 0.815 H 1 NIL_1    0.000
@<TRIPOS>BOND
1 1 2 1 
2 2 5 1 
3 2 57 1 
4 2 58 1 
5 3 1 1 
6 3 56 1 
7 4 1 1 
8 4 8 1 
9 4 9 2 
10 6 3 1 
11 6 5 1 
12 6 54 1 
13 6 55 1 
14 7 3 1 
15 8 51 1 
16 8 52 1 
17 8 53 1 
18 10 5 1 
19 10 15 1 
20 11 5 1 
21 11 16 1 
22 12 7 2 
23 13 7 1 
24 13 18 1 
25 13 19 1 
26 14 10 2 
27 16 49 1 
28 16 50 1 
29 17 11 1 
30 17 20 1 
31 18 46 1 
32 18 47 1 
33 18 48 1 
34 19 43 1 
35 19 44 1 
36 19 45 1 
37 20 15 1 
38 20 42 1 
39 21 15 1 
40 21 41 1 
41 22 16 1 
42 23 17 2 
43 24 25 1 
44 24 20 1 
45 25 21 1 
46 26 22 2 
47 27 29 2 
48 27 22 1 
49 28 26 1 
50 29 30 1 
51 30 28 2 
52 31 30 1 
53 32 29 1 
54 33 28 1 
55 34 27 1 
56 35 26 1 
57 36 25 1 
58 37 25 1 
59 38 24 1 
60 39 24 1 
61 40 21 1 
@<TRIPOS>SUBSTRUCTURE
1 NIL_1 1 RESIDUE 1 A NIL 1
