@<TRIPOS>MOLECULE
NIL
48 50 1 0 0
POLYMER
CHARGES


@<TRIPOS>ATOM
1 C_2306 156.301 54.9412 1.43961 C.2 1 NIL_1    0.000
2 C_2299 157.506 54.343 0.693 C.3 1 NIL_1    0.000
3 O 156.059 54.690 2.606 O.2 1 NIL_1    0.000
4 N 155.506 55.786 0.752 N.am 1 NIL_1    0.000
5 C_2300 158.676 54.194 1.709 C.3 1 NIL_1    0.000
6 C_2303 157.138 52.877 0.379 C.3 1 NIL_1    0.000
7 N 157.873 55.094 -0.554 N.am 1 NIL_1    0.000
8 C_2406 155.631 56.093 -0.668 C.3 1 NIL_1    0.000
9 C_2422 154.408 56.583 1.316 C.3 1 NIL_1    0.000
10 N 158.521 52.899 2.383 N.am 1 NIL_1    0.000
11 C_2302 157.668 52.026 1.555 C.3 1 NIL_1    0.000
12 C_2380 159.209 54.783 -1.113 C.3 1 NIL_1    0.000
13 C_2416 157.030 55.926 -1.225 C.2 1 NIL_1    0.000
14 C_2426 155.028 57.497 -0.835 C.3 1 NIL_1    0.000
15 C_2424 153.885 57.487 0.186 C.3 1 NIL_1    0.000
16 C_2313 159.095 52.587 3.577 C.2 1 NIL_1    0.000
17 C_2304 158.400 50.804 1.000 C.2 1 NIL_1    0.000
18 O 157.376 56.521 -2.228 O.2 1 NIL_1    0.000
19 C_2314 158.798 51.226 4.184 C.3 1 NIL_1    0.000
20 O 159.813 53.378 4.157 O.2 1 NIL_1    0.000
21 O 159.608 50.812 0.853 O.2 1 NIL_1    0.000
22 N 157.649 49.732 0.618 N.am 1 NIL_1    0.000
23 C_2316 158.222 48.562 -0.066 C.3 1 NIL_1    0.000
24 C_2336 156.206 49.588 0.880 C.3 1 NIL_1    0.000
25 H_23361 155.665 50.432 0.448 H 1 NIL_1    0.000
26 H_23362 156.040 49.558 1.960 H 1 NIL_1    0.000
27 H_23363 155.817 48.664 0.441 H 1 NIL_1    0.000
28 H_23161 158.430 47.783 0.671 H 1 NIL_1    0.000
29 H_23162 159.146 48.833 -0.582 H 1 NIL_1    0.000
30 H_23163 157.516 48.181 -0.810 H 1 NIL_1    0.000
31 H_23141 159.378 50.449 3.682 H 1 NIL_1    0.000
32 H_23142 157.739 50.974 4.098 H 1 NIL_1    0.000
33 H_23143 159.059 51.218 5.245 H 1 NIL_1    0.000
34 H_24241 153.634 58.490 0.538 H 1 NIL_1    0.000
35 H_24242 152.995 57.037 -0.263 H 1 NIL_1    0.000
36 H_24261 154.677 57.685 -1.852 H 1 NIL_1    0.000
37 H_24262 155.762 58.260 -0.559 H 1 NIL_1    0.000
38 H_23801 159.954 55.433 -0.647 H 1 NIL_1    0.000
39 H_23802 159.224 54.945 -2.194 H 1 NIL_1    0.000
40 H_23803 159.472 53.738 -0.926 H 1 NIL_1    0.000
41 H_2302 156.828 51.701 2.172 H 1 NIL_1    0.000
42 H_24221 154.797 57.194 2.134 H 1 NIL_1    0.000
43 H_24222 153.615 55.929 1.687 H 1 NIL_1    0.000
44 H_2406 155.006 55.373 -1.207 H 1 NIL_1    0.000
45 H_23031 157.601 52.556 -0.557 H 1 NIL_1    0.000
46 H_23032 156.059 52.746 0.263 H 1 NIL_1    0.000
47 H_23001 159.654 54.170 1.227 H 1 NIL_1    0.000
48 H_23002 158.673 55.013 2.433 H 1 NIL_1    0.000
@<TRIPOS>BOND
1 2 6 1 
2 2 1 1 
3 2 7 1 
4 3 1 2 
5 4 1 1 
6 5 2 1 
7 6 11 1 
8 8 4 1 
9 9 4 1 
10 10 5 1 
11 10 11 1 
12 10 16 1 
13 12 7 1 
14 13 7 1 
15 13 8 1 
16 14 15 1 
17 14 8 1 
18 15 9 1 
19 17 11 1 
20 18 13 2 
21 19 16 1 
22 20 16 2 
23 21 17 2 
24 22 17 1 
25 23 22 1 
26 24 22 1 
27 25 24 1 
28 26 24 1 
29 27 24 1 
30 28 23 1 
31 29 23 1 
32 30 23 1 
33 31 19 1 
34 32 19 1 
35 33 19 1 
36 34 15 1 
37 35 15 1 
38 36 14 1 
39 37 14 1 
40 38 12 1 
41 39 12 1 
42 40 12 1 
43 41 11 1 
44 42 9 1 
45 43 9 1 
46 44 8 1 
47 45 6 1 
48 46 6 1 
49 47 5 1 
50 48 5 1 
@<TRIPOS>SUBSTRUCTURE
1 NIL_1 1 RESIDUE 1 A NIL 1
