@<TRIPOS>MOLECULE
NIL
48 50 1 0 0
POLYMER
CHARGES


@<TRIPOS>ATOM
1 C_2366 176.549 44.4732 3.04012 C.2 1 NIL_1    0.000
2 C_2364 176.260 45.272 2.011 C.2 1 NIL_1    0.000
3 C_2368 177.339 44.911 4.020 C.2 1 NIL_1    0.000
4 C_2342 176.754 46.514 1.945 C.2 1 NIL_1    0.000
5 C_2370 177.839 46.146 3.965 C.2 1 NIL_1    0.000
6 C_2338 176.427 47.390 0.746 C.3 1 NIL_1    0.000
7 C_2372 177.550 46.941 2.933 C.2 1 NIL_1    0.000
8 N 176.365 48.848 0.964 N.am 1 NIL_1    0.000
9 C_2306 175.445 49.457 1.749 C.2 1 NIL_1    0.000
10 C_2308 177.174 49.741 0.347 C.2 1 NIL_1    0.000
11 C_2299 175.632 50.953 1.626 C.3 1 NIL_1    0.000
12 O 174.607 48.884 2.417 O.2 1 NIL_1    0.000
13 NH 176.765 50.968 0.715 N.am 1 NIL_1    0.000
14 O 178.099 49.502 -0.403 O.2 1 NIL_1    0.000
15 C_2300 175.922 51.644 2.970 C.3 1 NIL_1    0.000
16 C_2303 174.374 51.648 1.078 C.3 1 NIL_1    0.000
17 N 174.754 52.469 3.311 N.am 1 NIL_1    0.000
18 C_2302 173.683 52.259 2.315 C.3 1 NIL_1    0.000
19 C_2313 174.690 53.273 4.406 C.2 1 NIL_1    0.000
20 C_2304 172.571 51.352 2.854 C.2 1 NIL_1    0.000
21 C_2314 173.438 54.106 4.601 C.3 1 NIL_1    0.000
22 O 175.609 53.336 5.199 O.2 1 NIL_1    0.000
23 O 172.759 50.651 3.832 O.2 1 NIL_1    0.000
24 N 171.363 51.333 2.219 N.am 1 NIL_1    0.000
25 C_2316 170.266 50.450 2.657 C.3 1 NIL_1    0.000
26 C_2336 171.023 52.096 1.004 C.3 1 NIL_1    0.000
27 H_23361 171.463 53.094 1.033 H 1 NIL_1    0.000
28 H_23362 169.940 52.213 0.915 H 1 NIL_1    0.000
29 H_23363 171.391 51.555 0.128 H 1 NIL_1    0.000
30 H_23161 170.371 49.477 2.169 H 1 NIL_1    0.000
31 H_23162 169.295 50.879 2.398 H 1 NIL_1    0.000
32 H_23163 170.297 50.313 3.741 H 1 NIL_1    0.000
33 H_23141 173.375 54.876 3.829 H 1 NIL_1    0.000
34 H_23142 173.454 54.597 5.577 H 1 NIL_1    0.000
35 H_23143 172.541 53.486 4.551 H 1 NIL_1    0.000
36 H_2302 173.247 53.224 2.053 H 1 NIL_1    0.000
37 H_23031 173.729 50.965 0.518 H 1 NIL_1    0.000
38 H_23032 174.672 52.458 0.408 H 1 NIL_1    0.000
39 H_23001 176.102 50.906 3.759 H 1 NIL_1    0.000
40 H_23002 176.795 52.296 2.877 H 1 NIL_1    0.000
41 H_2372 177.974 47.940 2.904 H 1 NIL_1    0.000
42 H_23381 177.167 47.188 -0.032 H 1 NIL_1    0.000
43 H_23382 175.455 47.087 0.343 H 1 NIL_1    0.000
44 H_2370 178.489 46.503 4.761 H 1 NIL_1    0.000
45 H_2368 177.579 44.261 4.857 H 1 NIL_1    0.000
46 H_2364 175.618 44.897 1.217 H 1 NIL_1    0.000
47 H_2366 176.145 43.465 3.076 H 1 NIL_1    0.000
48 HH 177.196 51.822 0.396 H 1 NIL_1    0.000
@<TRIPOS>BOND
1 1 2 1 
2 2 4 2 
3 3 1 2 
4 4 6 1 
5 5 3 1 
6 6 8 1 
7 7 5 2 
8 7 4 1 
9 8 9 1 
10 9 11 1 
11 10 8 1 
12 12 9 2 
13 13 10 1 
14 13 11 1 
15 14 10 2 
16 15 11 1 
17 16 18 1 
18 16 11 1 
19 17 15 1 
20 18 17 1 
21 19 17 1 
22 20 18 1 
23 21 19 1 
24 22 19 2 
25 23 20 2 
26 24 20 1 
27 25 24 1 
28 26 24 1 
29 27 26 1 
30 28 26 1 
31 29 26 1 
32 30 25 1 
33 31 25 1 
34 32 25 1 
35 33 21 1 
36 34 21 1 
37 35 21 1 
38 36 18 1 
39 37 16 1 
40 38 16 1 
41 39 15 1 
42 40 15 1 
43 41 7 1 
44 42 6 1 
45 43 6 1 
46 44 5 1 
47 45 3 1 
48 46 2 1 
49 47 1 1 
50 48 13 1 
@<TRIPOS>SUBSTRUCTURE
1 NIL_1 1 RESIDUE 1 A NIL 1
