@<TRIPOS>MOLECULE
NIL
51 53 1 0 0
POLYMER
CHARGES


@<TRIPOS>ATOM
1 O 164.389 57.0809 2.25324 O.2 1 NIL_1    0.000
2 C_2308 164.979 56.635 1.287 C.2 1 NIL_1    0.000
3 N 164.538 55.677 0.444 N.am 1 NIL_1    0.000
4 N 166.190 57.025 0.846 N.am 1 NIL_1    0.000
5 C_2306 165.421 55.419 -0.548 C.2 1 NIL_1    0.000
6 C_2338 163.229 55.021 0.577 C.3 1 NIL_1    0.000
7 C_2299 166.661 56.264 -0.319 C.3 1 NIL_1    0.000
8 C_2380 166.999 58.121 1.411 C.3 1 NIL_1    0.000
9 O 165.235 54.641 -1.463 O.2 1 NIL_1    0.000
10 C_2300 167.042 57.076 -1.574 C.3 1 NIL_1    0.000
11 C_2303 167.882 55.363 -0.057 C.3 1 NIL_1    0.000
12 C_2386 166.781 59.505 0.819 C.2 1 NIL_1    0.000
13 N 168.184 56.401 -2.214 N.am 1 NIL_1    0.000
14 C_2302 168.579 55.216 -1.427 C.3 1 NIL_1    0.000
15 C_2388 167.778 60.395 0.867 C.2 1 NIL_1    0.000
16 C_2396 165.629 59.864 0.235 C.2 1 NIL_1    0.000
17 C_2313 168.824 56.820 -3.339 C.2 1 NIL_1    0.000
18 C_2304 168.227 53.899 -2.125 C.2 1 NIL_1    0.000
19 C_2390 167.636 61.610 0.340 C.2 1 NIL_1    0.000
20 C_2394 165.486 61.079 -0.297 C.2 1 NIL_1    0.000
21 C_2314 168.341 58.106 -3.981 C.3 1 NIL_1    0.000
22 O 169.758 56.199 -3.808 O.2 1 NIL_1    0.000
23 O 167.540 53.887 -3.130 O.2 1 NIL_1    0.000
24 N 168.684 52.728 -1.595 N.am 1 NIL_1    0.000
25 C_2392 166.490 61.953 -0.247 C.2 1 NIL_1    0.000
26 C_2316 168.263 51.421 -2.134 C.3 1 NIL_1    0.000
27 C_2336 169.569 52.593 -0.421 C.3 1 NIL_1    0.000
28 H_23361 170.156 53.499 -0.260 H 1 NIL_1    0.000
29 H_23362 170.268 51.766 -0.572 H 1 NIL_1    0.000
30 H_23363 168.963 52.389 0.465 H 1 NIL_1    0.000
31 H_23161 168.841 50.603 -1.695 H 1 NIL_1    0.000
32 H_23162 168.404 51.403 -3.217 H 1 NIL_1    0.000
33 H_23163 167.204 51.264 -1.909 H 1 NIL_1    0.000
34 H_2392 166.375 62.943 -0.683 H 1 NIL_1    0.000
35 H_23141 168.402 58.932 -3.270 H 1 NIL_1    0.000
36 H_23142 167.305 58.009 -4.314 H 1 NIL_1    0.000
37 H_23143 168.961 58.356 -4.846 H 1 NIL_1    0.000
38 H_2394 164.552 61.355 -0.782 H 1 NIL_1    0.000
39 H_2390 168.460 62.319 0.388 H 1 NIL_1    0.000
40 H_2396 164.794 59.169 0.175 H 1 NIL_1    0.000
41 H_2388 168.721 60.131 1.340 H 1 NIL_1    0.000
42 H_2302 169.662 55.242 -1.288 H 1 NIL_1    0.000
43 H_23031 167.596 54.410 0.393 H 1 NIL_1    0.000
44 H_23032 168.580 55.854 0.625 H 1 NIL_1    0.000
45 H_23001 166.201 57.135 -2.269 H 1 NIL_1    0.000
46 H_23002 167.358 58.082 -1.302 H 1 NIL_1    0.000
47 H_23801 168.054 57.858 1.302 H 1 NIL_1    0.000
48 H_23802 166.795 58.165 2.483 H 1 NIL_1    0.000
49 H_23381 162.456 55.673 0.165 H 1 NIL_1    0.000
50 H_23382 163.020 54.834 1.634 H 1 NIL_1    0.000
51 H_23383 163.229 54.071 0.038 H 1 NIL_1    0.000
@<TRIPOS>BOND
1 1 2 2 
2 2 3 1 
3 3 5 1 
4 4 2 1 
5 6 3 1 
6 6 49 1 
7 6 50 1 
8 6 51 1 
9 7 5 1 
10 7 4 1 
11 8 4 1 
12 8 47 1 
13 8 48 1 
14 9 5 2 
15 10 7 1 
16 10 45 1 
17 10 46 1 
18 11 14 1 
19 11 7 1 
20 11 43 1 
21 11 44 1 
22 12 8 1 
23 13 10 1 
24 13 17 1 
25 14 13 1 
26 14 42 1 
27 15 12 2 
28 15 41 1 
29 16 20 2 
30 16 12 1 
31 16 40 1 
32 18 14 1 
33 18 23 2 
34 18 24 1 
35 19 15 1 
36 19 39 1 
37 20 25 1 
38 20 38 1 
39 21 17 1 
40 21 35 1 
41 21 36 1 
42 21 37 1 
43 22 17 2 
44 25 19 2 
45 26 24 1 
46 27 24 1 
47 28 27 1 
48 29 27 1 
49 30 27 1 
50 31 26 1 
51 32 26 1 
52 33 26 1 
53 34 25 1 
@<TRIPOS>SUBSTRUCTURE
1 NIL_1 1 RESIDUE 1 A NIL 1
