@<TRIPOS>MOLECULE
NIL
61 64 1 0 0
POLYMER
CHARGES


@<TRIPOS>ATOM
1 C_2306 170.853 49.8514 0.385171 C.2 1 NIL_1    0.000
2 C_2299 171.509 51.042 -0.281 C.3 1 NIL_1    0.000
3 N 171.081 48.747 -0.367 N.am 1 NIL_1    0.000
4 O 170.225 49.873 1.427 O.2 1 NIL_1    0.000
5 C_2300 172.592 51.676 0.613 C.3 1 NIL_1    0.000
6 C_2303 170.527 52.192 -0.565 C.3 1 NIL_1    0.000
7 N 172.039 50.363 -1.471 N.am 1 NIL_1    0.000
8 C_2308 171.816 49.034 -1.471 C.2 1 NIL_1    0.000
9 C_2338 170.557 47.418 0.018 C.3 1 NIL_1    0.000
10 N 172.594 53.123 0.338 N.am 1 NIL_1    0.000
11 C_2302 171.391 53.466 -0.457 C.3 1 NIL_1    0.000
12 C_2340 172.749 51.118 -2.524 C.3 1 NIL_1    0.000
13 O 172.205 48.261 -2.324 O.2 1 NIL_1    0.000
14 C_2342 170.776 46.229 -0.900 C.2 1 NIL_1    0.000
15 C_2313 173.620 53.945 0.693 C.2 1 NIL_1    0.000
16 C_2304 170.542 54.661 -0.017 C.2 1 NIL_1    0.000
17 C_2346 171.862 51.692 -3.617 C.2 1 NIL_1    0.000
18 C_2364 171.689 45.297 -0.601 C.2 1 NIL_1    0.000
19 C_2372 170.063 46.098 -2.026 C.2 1 NIL_1    0.000
20 C_2314 173.593 55.387 0.217 C.3 1 NIL_1    0.000
21 O 174.552 53.535 1.355 O.2 1 NIL_1    0.000
22 O 170.101 55.405 -0.871 O.2 1 NIL_1    0.000
23 N 170.315 54.919 1.305 N.am 1 NIL_1    0.000
24 C_2348 170.900 50.962 -4.197 C.2 1 NIL_1    0.000
25 C_2356 172.037 52.955 -4.022 C.2 1 NIL_1    0.000
26 C_2366 171.892 44.259 -1.414 C.2 1 NIL_1    0.000
27 C_2370 170.268 45.063 -2.844 C.2 1 NIL_1    0.000
28 C_2316 169.648 56.156 1.749 C.3 1 NIL_1    0.000
29 C_2336 170.616 54.018 2.430 C.3 1 NIL_1    0.000
30 C_2350 170.127 51.486 -5.151 C.2 1 NIL_1    0.000
31 C_2354 171.265 53.482 -4.974 C.2 1 NIL_1    0.000
32 C_2368 171.183 44.143 -2.537 C.2 1 NIL_1    0.000
33 C_2352 170.307 52.748 -5.539 C.2 1 NIL_1    0.000
34 H_2352 169.678 53.177 -6.316 H 1 NIL_1    0.000
35 H_2368 171.352 43.300 -3.203 H 1 NIL_1    0.000
36 H_2354 171.420 54.510 -5.290 H 1 NIL_1    0.000
37 H_2350 169.349 50.883 -5.612 H 1 NIL_1    0.000
38 H_23361 170.508 52.976 2.129 H 1 NIL_1    0.000
39 H_23362 169.920 54.198 3.255 H 1 NIL_1    0.000
40 H_23363 171.637 54.196 2.775 H 1 NIL_1    0.000
41 H_23161 170.025 57.006 1.173 H 1 NIL_1    0.000
42 H_23162 169.845 56.347 2.808 H 1 NIL_1    0.000
43 H_23163 168.570 56.065 1.596 H 1 NIL_1    0.000
44 H_2370 169.692 44.973 -3.761 H 1 NIL_1    0.000
45 H_2366 172.640 43.510 -1.162 H 1 NIL_1    0.000
46 H_2356 172.815 53.568 -3.572 H 1 NIL_1    0.000
47 H_2348 170.734 49.931 -3.899 H 1 NIL_1    0.000
48 H_23141 172.880 55.970 0.800 H 1 NIL_1    0.000
49 H_23142 173.320 55.450 -0.839 H 1 NIL_1    0.000
50 H_23143 174.578 55.843 0.335 H 1 NIL_1    0.000
51 H_2372 169.319 46.847 -2.287 H 1 NIL_1    0.000
52 H_2364 172.276 45.382 0.311 H 1 NIL_1    0.000
53 H_23401 173.476 50.449 -2.991 H 1 NIL_1    0.000
54 H_23402 173.317 51.924 -2.051 H 1 NIL_1    0.000
55 H_2302 171.754 53.712 -1.457 H 1 NIL_1    0.000
56 H_23381 169.480 47.526 0.170 H 1 NIL_1    0.000
57 H_23382 170.982 47.182 0.997 H 1 NIL_1    0.000
58 H_23031 169.742 52.209 0.194 H 1 NIL_1    0.000
59 H_23032 170.040 52.105 -1.536 H 1 NIL_1    0.000
60 H_23001 172.353 51.524 1.671 H 1 NIL_1    0.000
61 H_23002 173.574 51.244 0.401 H 1 NIL_1    0.000
@<TRIPOS>BOND
1 2 1 1 
2 2 7 1 
3 3 1 1 
4 4 1 2 
5 5 2 1 
6 6 11 1 
7 6 2 1 
8 7 8 1 
9 8 3 1 
10 9 3 1 
11 10 5 1 
12 10 15 1 
13 11 10 1 
14 11 16 1 
15 12 7 1 
16 13 8 2 
17 14 9 1 
18 17 12 1 
19 18 14 2 
20 19 27 2 
21 19 14 1 
22 20 15 1 
23 21 15 2 
24 22 16 2 
25 23 16 1 
26 24 17 2 
27 25 31 2 
28 25 17 1 
29 26 18 1 
30 27 32 1 
31 28 23 1 
32 29 23 1 
33 30 24 1 
34 31 33 1 
35 32 26 2 
36 33 30 2 
37 34 33 1 
38 35 32 1 
39 36 31 1 
40 37 30 1 
41 38 29 1 
42 39 29 1 
43 40 29 1 
44 41 28 1 
45 42 28 1 
46 43 28 1 
47 44 27 1 
48 45 26 1 
49 46 25 1 
50 47 24 1 
51 48 20 1 
52 49 20 1 
53 50 20 1 
54 51 19 1 
55 52 18 1 
56 53 12 1 
57 54 12 1 
58 55 11 1 
59 56 9 1 
60 57 9 1 
61 58 6 1 
62 59 6 1 
63 60 5 1 
64 61 5 1 
@<TRIPOS>SUBSTRUCTURE
1 NIL_1 1 RESIDUE 1 A NIL 1
