@<TRIPOS>MOLECULE
NIL
51 53 1 0 0
POLYMER
CHARGES


@<TRIPOS>ATOM
1 C_2303 171.381 51.4574 -1.13281 C.3 1 NIL_1    0.000
2 C_2302 170.394 52.560 -0.691 C.3 1 NIL_1    0.000
3 C_2299 170.905 50.186 -0.408 C.3 1 NIL_1    0.000
4 N 169.860 52.133 0.616 N.am 1 NIL_1    0.000
5 C_2304 169.426 52.913 -1.836 C.2 1 NIL_1    0.000
6 C_2300 170.137 50.701 0.827 C.3 1 NIL_1    0.000
7 C_2306 170.035 49.357 -1.328 C.2 1 NIL_1    0.000
8 N 171.948 49.191 -0.142 N.am 1 NIL_1    0.000
9 C_2313 169.328 52.946 1.569 C.2 1 NIL_1    0.000
10 O 169.914 53.468 -2.804 O.2 1 NIL_1    0.000
11 N 168.078 52.646 -1.830 N.am 1 NIL_1    0.000
12 N 170.613 48.147 -1.503 N.am 1 NIL_1    0.000
13 O 169.002 49.710 -1.862 O.2 1 NIL_1    0.000
14 C_2308 171.773 48.036 -0.812 C.2 1 NIL_1    0.000
15 C_2380 173.041 49.488 0.798 C.3 1 NIL_1    0.000
16 C_2314 169.252 54.433 1.264 C.3 1 NIL_1    0.000
17 O 168.934 52.504 2.630 O.2 1 NIL_1    0.000
18 C_2316 167.250 52.964 -3.012 C.3 1 NIL_1    0.000
19 C_2336 167.257 52.085 -0.735 C.3 1 NIL_1    0.000
20 C_2338 170.074 47.138 -2.434 C.3 1 NIL_1    0.000
21 O 172.526 47.081 -0.791 O.2 1 NIL_1    0.000
22 C_2342 170.241 45.674 -2.077 C.2 1 NIL_1    0.000
23 C_2364 170.807 44.829 -2.947 C.2 1 NIL_1    0.000
24 C_2372 169.814 45.202 -0.901 C.2 1 NIL_1    0.000
25 C_2366 170.950 43.539 -2.646 C.2 1 NIL_1    0.000
26 C_2370 169.959 43.911 -0.595 C.2 1 NIL_1    0.000
27 C_2368 170.529 43.079 -1.467 C.2 1 NIL_1    0.000
28 H_2368 170.646 42.027 -1.221 H 1 NIL_1    0.000
29 H_2370 169.612 43.539 0.365 H 1 NIL_1    0.000
30 H_2366 171.412 42.862 -3.363 H 1 NIL_1    0.000
31 H_2372 169.345 45.874 -0.186 H 1 NIL_1    0.000
32 H_2364 171.154 45.193 -3.911 H 1 NIL_1    0.000
33 H_23381 170.532 47.330 -3.408 H 1 NIL_1    0.000
34 H_23382 169.001 47.316 -2.546 H 1 NIL_1    0.000
35 H_23361 166.244 51.853 -1.073 H 1 NIL_1    0.000
36 H_23362 167.176 52.813 0.074 H 1 NIL_1    0.000
37 H_23363 167.694 51.161 -0.357 H 1 NIL_1    0.000
38 H_23161 166.349 52.345 -3.044 H 1 NIL_1    0.000
39 H_23162 167.816 52.773 -3.927 H 1 NIL_1    0.000
40 H_23163 166.964 54.018 -2.982 H 1 NIL_1    0.000
41 H_23141 170.256 54.842 1.126 H 1 NIL_1    0.000
42 H_23142 168.776 54.970 2.088 H 1 NIL_1    0.000
43 H_23143 168.673 54.619 0.357 H 1 NIL_1    0.000
44 H_23801 174.000 49.388 0.283 H 1 NIL_1    0.000
45 H_23802 173.001 48.772 1.624 H 1 NIL_1    0.000
46 H_23803 172.949 50.501 1.197 H 1 NIL_1    0.000
47 H_23001 169.207 50.144 0.970 H 1 NIL_1    0.000
48 H_23002 170.750 50.604 1.726 H 1 NIL_1    0.000
49 H_2302 170.981 53.467 -0.532 H 1 NIL_1    0.000
50 H_23031 171.422 51.327 -2.218 H 1 NIL_1    0.000
51 H_23032 172.382 51.734 -0.793 H 1 NIL_1    0.000
@<TRIPOS>BOND
1 1 2 1 
2 1 3 1 
3 1 50 1 
4 1 51 1 
5 2 4 1 
6 2 49 1 
7 3 7 1 
8 3 8 1 
9 4 6 1 
10 4 9 1 
11 5 2 1 
12 5 11 1 
13 6 3 1 
14 6 47 1 
15 6 48 1 
16 8 14 1 
17 10 5 2 
18 12 7 1 
19 13 7 2 
20 14 12 1 
21 15 8 1 
22 15 44 1 
23 15 45 1 
24 15 46 1 
25 16 9 1 
26 17 9 2 
27 18 11 1 
28 19 11 1 
29 20 12 1 
30 21 14 2 
31 22 20 1 
32 23 22 2 
33 24 26 2 
34 24 22 1 
35 25 23 1 
36 26 27 1 
37 27 25 2 
38 28 27 1 
39 29 26 1 
40 30 25 1 
41 31 24 1 
42 32 23 1 
43 33 20 1 
44 34 20 1 
45 35 19 1 
46 36 19 1 
47 37 19 1 
48 38 18 1 
49 39 18 1 
50 40 18 1 
51 41 16 1 
52 42 16 1 
53 43 16 1 
@<TRIPOS>SUBSTRUCTURE
1 NIL_1 1 RESIDUE 1 A NIL 1
