@<TRIPOS>MOLECULE
NIL
35 36 1 0 0
POLYMER
CHARGES


@<TRIPOS>ATOM
1 O 175.291 55.2738 -2.8829 O.2 1 NIL_1    0.000
2 C_2304 175.422 56.003 -1.918 C.2 1 NIL_1    0.000
3 C_2302 176.367 57.206 -2.083 C.3 1 NIL_1    0.000
4 N 174.714 55.724 -0.778 N.am 1 NIL_1    0.000
5 N 176.331 58.321 -1.116 N.am 1 NIL_1    0.000
6 C_2303 177.835 56.741 -2.196 C.3 1 NIL_1    0.000
7 C_2316 174.771 56.422 0.521 C.3 1 NIL_1    0.000
8 C_2336 173.773 54.586 -0.751 C.3 1 NIL_1    0.000
9 C_2300 177.638 58.450 -0.454 C.3 1 NIL_1    0.000
10 C_2313 175.298 59.198 -0.995 C.2 1 NIL_1    0.000
11 C_2299 178.542 57.313 -0.961 C.3 1 NIL_1    0.000
12 C_2314 175.482 60.374 -0.051 C.3 1 NIL_1    0.000
13 O 174.267 59.056 -1.623 O.2 1 NIL_1    0.000
14 C_2306 178.799 56.251 0.086 C.2 1 NIL_1    0.000
15 NH 179.918 57.732 -1.207 N.am 1 NIL_1    0.000
16 NH 180.129 56.181 0.280 N.am 1 NIL_1    0.000
17 O 177.981 55.559 0.658 O.2 1 NIL_1    0.000
18 C_2308 180.820 57.054 -0.477 C.2 1 NIL_1    0.000
19 O 182.024 57.203 -0.496 O.2 1 NIL_1    0.000
20 H_23141 176.340 60.979 -0.355 H 1 NIL_1    0.000
21 H_23142 175.647 60.027 0.972 H 1 NIL_1    0.000
22 H_23143 174.598 61.016 -0.064 H 1 NIL_1    0.000
23 H_23001 177.521 58.402 0.632 H 1 NIL_1    0.000
24 H_23002 178.073 59.415 -0.728 H 1 NIL_1    0.000
25 H_23361 174.337 53.654 -0.847 H 1 NIL_1    0.000
26 H_23362 173.080 54.675 -1.592 H 1 NIL_1    0.000
27 H_23363 173.191 54.557 0.174 H 1 NIL_1    0.000
28 H_23161 174.142 57.313 0.486 H 1 NIL_1    0.000
29 H_23162 175.794 56.703 0.764 H 1 NIL_1    0.000
30 H_23163 174.411 55.777 1.327 H 1 NIL_1    0.000
31 H_23031 177.935 55.655 -2.262 H 1 NIL_1    0.000
32 H_23032 178.271 57.170 -3.102 H 1 NIL_1    0.000
33 H_2302 176.090 57.633 -3.051 H 1 NIL_1    0.000
34 HH 180.564 55.540 0.927 H 1 NIL_1    0.000
35 HH 180.154 58.484 -1.837 H 1 NIL_1    0.000
@<TRIPOS>BOND
1 1 2 2 
2 2 3 1 
3 3 5 1 
4 4 2 1 
5 4 7 1 
6 4 8 1 
7 5 9 1 
8 6 3 1 
9 6 11 1 
10 6 31 1 
11 9 11 1 
12 9 23 1 
13 9 24 1 
14 10 5 1 
15 10 13 2 
16 12 10 1 
17 12 20 1 
18 12 21 1 
19 12 22 1 
20 14 11 1 
21 15 18 1 
22 15 11 1 
23 16 14 1 
24 17 14 2 
25 18 16 1 
26 19 18 2 
27 25 8 1 
28 26 8 1 
29 27 8 1 
30 28 7 1 
31 29 7 1 
32 30 7 1 
33 32 6 1 
34 33 3 1 
35 34 16 1 
36 35 15 1 
@<TRIPOS>SUBSTRUCTURE
1 NIL_1 1 RESIDUE 1 A NIL 1
