@<TRIPOS>MOLECULE
NIL
41 42 1 0 0
POLYMER
CHARGES


@<TRIPOS>ATOM
1 N 168.369 55.4122 1.04211 N.am 1 NIL_1    0.000
2 C_2300 169.708 55.001 1.497 C.3 1 NIL_1    0.000
3 C_2302 167.974 54.627 -0.146 C.3 1 NIL_1    0.000
4 C_2313 167.606 56.382 1.611 C.2 1 NIL_1    0.000
5 C_2299 170.156 53.816 0.619 C.3 1 NIL_1    0.000
6 C_2303 169.247 53.893 -0.621 C.3 1 NIL_1    0.000
7 C_2304 166.824 53.656 0.136 C.2 1 NIL_1    0.000
8 C_2314 168.153 57.050 2.859 C.3 1 NIL_1    0.000
9 O 166.530 56.703 1.146 O.2 1 NIL_1    0.000
10 C_2306 169.974 52.495 1.342 C.2 1 NIL_1    0.000
11 N 171.595 53.719 0.347 N.am 1 NIL_1    0.000
12 O 166.445 53.453 1.276 O.2 1 NIL_1    0.000
13 N 166.242 53.000 -0.910 N.am 1 NIL_1    0.000
14 N 171.161 51.848 1.362 N.am 1 NIL_1    0.000
15 O 168.945 52.069 1.828 O.2 1 NIL_1    0.000
16 C_2308 172.145 52.564 0.772 C.2 1 NIL_1    0.000
17 C_2340 172.298 54.816 -0.338 C.3 1 NIL_1    0.000
18 C_2316 166.559 53.177 -2.341 C.3 1 NIL_1    0.000
19 C_2336 165.242 51.937 -0.702 C.3 1 NIL_1    0.000
20 C_2338 171.353 50.501 1.920 C.3 1 NIL_1    0.000
21 O 173.307 52.229 0.650 O.2 1 NIL_1    0.000
22 H_23381 171.168 49.759 1.138 H 1 NIL_1    0.000
23 H_23382 170.661 50.334 2.751 H 1 NIL_1    0.000
24 H_23383 172.377 50.392 2.285 H 1 NIL_1    0.000
25 H_23361 164.571 52.209 0.117 H 1 NIL_1    0.000
26 H_23362 165.759 51.007 -0.449 H 1 NIL_1    0.000
27 H_23363 164.646 51.779 -1.605 H 1 NIL_1    0.000
28 H_23161 167.071 52.282 -2.709 H 1 NIL_1    0.000
29 H_23162 167.198 54.043 -2.519 H 1 NIL_1    0.000
30 H_23163 165.633 53.318 -2.906 H 1 NIL_1    0.000
31 H_23401 171.837 55.012 -1.309 H 1 NIL_1    0.000
32 H_23402 173.344 54.542 -0.501 H 1 NIL_1    0.000
33 H_23403 172.263 55.722 0.272 H 1 NIL_1    0.000
34 H_23141 168.291 56.316 3.657 H 1 NIL_1    0.000
35 H_23142 167.464 57.817 3.217 H 1 NIL_1    0.000
36 H_23143 169.115 57.522 2.649 H 1 NIL_1    0.000
37 H_23031 169.048 52.905 -1.047 H 1 NIL_1    0.000
38 H_23032 169.713 54.502 -1.398 H 1 NIL_1    0.000
39 H_2302 167.635 55.323 -0.918 H 1 NIL_1    0.000
40 H_23001 169.681 54.717 2.553 H 1 NIL_1    0.000
41 H_23002 170.383 55.851 1.373 H 1 NIL_1    0.000
@<TRIPOS>BOND
1 1 2 1 
2 2 5 1 
3 3 1 1 
4 4 1 1 
5 6 3 1 
6 6 5 1 
7 7 3 1 
8 8 4 1 
9 9 4 2 
10 10 5 1 
11 11 16 1 
12 11 5 1 
13 12 7 2 
14 13 7 1 
15 14 10 1 
16 15 10 2 
17 16 14 1 
18 17 11 1 
19 18 13 1 
20 19 13 1 
21 20 14 1 
22 21 16 2 
23 22 20 1 
24 23 20 1 
25 24 20 1 
26 25 19 1 
27 26 19 1 
28 27 19 1 
29 28 18 1 
30 29 18 1 
31 30 18 1 
32 31 17 1 
33 32 17 1 
34 33 17 1 
35 34 8 1 
36 35 8 1 
37 36 8 1 
38 37 6 1 
39 38 6 1 
40 39 3 1 
41 40 2 1 
42 41 2 1 
@<TRIPOS>SUBSTRUCTURE
1 NIL_1 1 RESIDUE 1 A NIL 1
