@<TRIPOS>MOLECULE
NIL
38 39 1 0 0
POLYMER
CHARGES


@<TRIPOS>ATOM
1 C_2336 171.734 51.3968 -5.62703 C.3 1 NIL_1    0.000
2 N 171.276 52.409 -4.657 N.am 1 NIL_1    0.000
3 C_2304 171.880 53.613 -4.439 C.2 1 NIL_1    0.000
4 C_2316 170.120 51.948 -3.863 C.3 1 NIL_1    0.000
5 C_2302 173.078 54.006 -5.311 C.3 1 NIL_1    0.000
6 O 171.468 54.358 -3.568 O.2 1 NIL_1    0.000
7 N 173.406 55.446 -5.219 N.am 1 NIL_1    0.000
8 C_2303 174.363 53.247 -4.916 C.3 1 NIL_1    0.000
9 C_2300 174.682 55.628 -4.510 C.3 1 NIL_1    0.000
10 C_2313 172.685 56.479 -5.730 C.2 1 NIL_1    0.000
11 C_2299 175.167 54.239 -4.065 C.3 1 NIL_1    0.000
12 C_2314 171.443 56.150 -6.537 C.3 1 NIL_1    0.000
13 O 173.033 57.632 -5.565 O.2 1 NIL_1    0.000
14 C_2306 174.963 54.009 -2.585 C.2 1 NIL_1    0.000
15 NH 176.610 54.060 -4.132 N.am 1 NIL_1    0.000
16 N 176.163 53.719 -2.035 N.am 1 NIL_1    0.000
17 O 173.910 54.074 -1.980 O.2 1 NIL_1    0.000
18 C_2308 177.163 53.756 -2.946 C.2 1 NIL_1    0.000
19 C_2338 176.355 53.426 -0.608 C.3 1 NIL_1    0.000
20 O 178.345 53.559 -2.745 O.2 1 NIL_1    0.000
21 H_23381 177.162 52.699 -0.483 H 1 NIL_1    0.000
22 H_23382 175.437 53.006 -0.185 H 1 NIL_1    0.000
23 H_23383 176.606 54.349 -0.078 H 1 NIL_1    0.000
24 H_23141 170.972 57.067 -6.902 H 1 NIL_1    0.000
25 H_23142 170.713 55.613 -5.929 H 1 NIL_1    0.000
26 H_23143 171.703 55.533 -7.399 H 1 NIL_1    0.000
27 H_23001 174.542 56.290 -3.650 H 1 NIL_1    0.000
28 H_23002 175.405 56.074 -5.200 H 1 NIL_1    0.000
29 H_23031 174.171 52.314 -4.381 H 1 NIL_1    0.000
30 H_23032 174.924 53.008 -5.825 H 1 NIL_1    0.000
31 H_2302 172.826 53.774 -6.349 H 1 NIL_1    0.000
32 H_23161 170.477 51.398 -2.987 H 1 NIL_1    0.000
33 H_23162 169.476 51.298 -4.463 H 1 NIL_1    0.000
34 H_23163 169.523 52.803 -3.532 H 1 NIL_1    0.000
35 H_23361 172.605 50.877 -5.221 H 1 NIL_1    0.000
36 H_23362 171.999 51.864 -6.578 H 1 NIL_1    0.000
37 H_23363 170.950 50.661 -5.819 H 1 NIL_1    0.000
38 HH 177.135 54.186 -4.982 H 1 NIL_1    0.000
@<TRIPOS>BOND
1 1 2 1 
2 3 5 1 
3 3 2 1 
4 4 2 1 
5 5 7 1 
6 6 3 2 
7 7 9 1 
8 7 10 1 
9 8 5 1 
10 8 11 1 
11 9 11 1 
12 11 15 1 
13 12 10 1 
14 13 10 2 
15 14 11 1 
16 14 17 2 
17 15 18 1 
18 16 14 1 
19 16 18 1 
20 19 16 1 
21 20 18 2 
22 21 19 1 
23 22 19 1 
24 23 19 1 
25 24 12 1 
26 25 12 1 
27 26 12 1 
28 27 9 1 
29 28 9 1 
30 29 8 1 
31 30 8 1 
32 31 5 1 
33 32 4 1 
34 33 4 1 
35 34 4 1 
36 35 1 1 
37 36 1 1 
38 37 1 1 
39 38 15 1 
@<TRIPOS>SUBSTRUCTURE
1 NIL_1 1 RESIDUE 1 A NIL 1
