@<TRIPOS>MOLECULE
NIL
51 53 1 0 0
POLYMER
CHARGES


@<TRIPOS>ATOM
1 C_2342 174.488 42.1747 0.440882 C.2 1 NIL_1    0.000
2 C_2338 175.116 43.504 0.069 C.3 1 NIL_1    0.000
3 C_2364 174.200 41.893 1.716 C.2 1 NIL_1    0.000
4 C_2372 174.208 41.268 -0.502 C.2 1 NIL_1    0.000
5 N 174.269 44.717 0.089 N.am 1 NIL_1    0.000
6 C_2366 173.633 40.730 2.044 C.2 1 NIL_1    0.000
7 C_2370 173.644 40.103 -0.177 C.2 1 NIL_1    0.000
8 C_2306 174.797 45.966 0.061 C.2 1 NIL_1    0.000
9 C_2308 172.911 44.749 0.115 C.2 1 NIL_1    0.000
10 C_2368 173.355 39.834 1.096 C.2 1 NIL_1    0.000
11 C_2299 173.674 46.978 0.094 C.3 1 NIL_1    0.000
12 O 175.986 46.225 0.028 O.2 1 NIL_1    0.000
13 N 172.544 46.045 0.134 N.am 1 NIL_1    0.000
14 O 172.147 43.802 0.114 O.2 1 NIL_1    0.000
15 C_2300 173.814 47.902 1.321 C.3 1 NIL_1    0.000
16 C_2303 173.695 47.906 -1.138 C.3 1 NIL_1    0.000
17 C_2380 171.165 46.557 0.185 C.3 1 NIL_1    0.000
18 N 173.869 49.293 0.846 N.am 1 NIL_1    0.000
19 C_2302 173.544 49.344 -0.593 C.3 1 NIL_1    0.000
20 C_2313 174.265 50.334 1.630 C.2 1 NIL_1    0.000
21 C_2304 172.202 49.939 -1.063 C.2 1 NIL_1    0.000
22 C_2314 174.438 51.694 0.979 C.3 1 NIL_1    0.000
23 O 174.487 50.179 2.815 O.2 1 NIL_1    0.000
24 O 172.094 50.150 -2.257 O.2 1 NIL_1    0.000
25 N 171.146 50.232 -0.235 N.am 1 NIL_1    0.000
26 C_2316 171.069 50.090 1.231 C.3 1 NIL_1    0.000
27 C_2336 169.841 50.679 -0.765 C.3 1 NIL_1    0.000
28 H_23361 169.448 51.495 -0.149 H 1 NIL_1    0.000
29 H_23362 169.142 49.838 -0.739 H 1 NIL_1    0.000
30 H_23363 169.925 51.036 -1.794 H 1 NIL_1    0.000
31 H_23161 171.711 50.832 1.708 H 1 NIL_1    0.000
32 H_23162 171.364 49.086 1.530 H 1 NIL_1    0.000
33 H_23163 170.049 50.257 1.588 H 1 NIL_1    0.000
34 H_23141 174.750 52.434 1.720 H 1 NIL_1    0.000
35 H_23142 173.503 52.035 0.532 H 1 NIL_1    0.000
36 H_23143 175.202 51.653 0.198 H 1 NIL_1    0.000
37 H_2302 174.309 49.953 -1.081 H 1 NIL_1    0.000
38 H_23801 170.475 45.798 -0.194 H 1 NIL_1    0.000
39 H_23802 171.066 47.451 -0.432 H 1 NIL_1    0.000
40 H_23803 170.909 46.795 1.220 H 1 NIL_1    0.000
41 H_23031 172.912 47.644 -1.853 H 1 NIL_1    0.000
42 H_23032 174.648 47.824 -1.667 H 1 NIL_1    0.000
43 H_23001 172.968 47.778 1.999 H 1 NIL_1    0.000
44 H_23002 174.731 47.678 1.872 H 1 NIL_1    0.000
45 H_2368 172.892 38.886 1.362 H 1 NIL_1    0.000
46 H_2370 173.419 39.373 -0.952 H 1 NIL_1    0.000
47 H_2366 173.398 40.513 3.083 H 1 NIL_1    0.000
48 H_2372 174.435 41.477 -1.544 H 1 NIL_1    0.000
49 H_2364 174.418 42.620 2.496 H 1 NIL_1    0.000
50 H_23381 175.951 43.675 0.754 H 1 NIL_1    0.000
51 H_23382 175.544 43.427 -0.934 H 1 NIL_1    0.000
@<TRIPOS>BOND
1 1 2 1 
2 2 5 1 
3 3 1 2 
4 4 7 2 
5 4 1 1 
6 5 8 1 
7 6 3 1 
8 7 10 1 
9 8 11 1 
10 9 5 1 
11 10 6 2 
12 12 8 2 
13 13 9 1 
14 13 11 1 
15 14 9 2 
16 15 11 1 
17 16 19 1 
18 16 11 1 
19 17 13 1 
20 18 15 1 
21 19 18 1 
22 20 18 1 
23 21 19 1 
24 22 20 1 
25 23 20 2 
26 24 21 2 
27 25 21 1 
28 26 25 1 
29 27 25 1 
30 28 27 1 
31 29 27 1 
32 30 27 1 
33 31 26 1 
34 32 26 1 
35 33 26 1 
36 34 22 1 
37 35 22 1 
38 36 22 1 
39 37 19 1 
40 38 17 1 
41 39 17 1 
42 40 17 1 
43 41 16 1 
44 42 16 1 
45 43 15 1 
46 44 15 1 
47 45 10 1 
48 46 7 1 
49 47 6 1 
50 48 4 1 
51 49 3 1 
52 50 2 1 
53 51 2 1 
@<TRIPOS>SUBSTRUCTURE
1 NIL_1 1 RESIDUE 1 A NIL 1
