@<TRIPOS>MOLECULE
NIL
35 36 1 0 0
POLYMER
CHARGES


@<TRIPOS>ATOM
1 NH 136.916 133.894 0.524513 N.am 1 NIL_1    0.000
2 C_2263 138.221 134.221 0.539 C.2 1 NIL_1    0.000
3 C_2254 136.321 133.956 -0.808 C.3 1 NIL_1    0.000
4 NH 138.563 134.516 -0.731 N.am 1 NIL_1    0.000
5 O 138.951 134.244 1.508 O.2 1 NIL_1    0.000
6 C_2255 135.146 134.944 -0.899 C.3 1 NIL_1    0.000
7 C_2258 135.743 132.611 -1.273 C.3 1 NIL_1    0.000
8 C_2261 137.535 134.402 -1.595 C.2 1 NIL_1    0.000
9 N 133.906 134.155 -0.957 N.am 1 NIL_1    0.000
10 C_2257 134.234 132.712 -0.966 C.3 1 NIL_1    0.000
11 O 137.598 134.630 -2.787 O.2 1 NIL_1    0.000
12 C_2268 132.664 134.707 -0.984 C.2 1 NIL_1    0.000
13 C_2259 133.908 132.037 0.368 C.2 1 NIL_1    0.000
14 C_2269 131.469 133.777 -1.106 C.3 1 NIL_1    0.000
15 O 132.512 135.912 -0.922 O.2 1 NIL_1    0.000
16 O 133.883 132.681 1.400 O.2 1 NIL_1    0.000
17 N 133.667 130.694 0.375 N.am 1 NIL_1    0.000
18 C_2271 133.287 129.955 1.592 C.3 1 NIL_1    0.000
19 C_2292 133.731 129.820 -0.812 C.3 1 NIL_1    0.000
20 H_22921 132.923 130.079 -1.499 H 1 NIL_1    0.000
21 H_22922 133.629 128.770 -0.523 H 1 NIL_1    0.000
22 H_22923 134.692 129.945 -1.312 H 1 NIL_1    0.000
23 H_22711 133.043 130.643 2.405 H 1 NIL_1    0.000
24 H_22712 134.119 129.315 1.901 H 1 NIL_1    0.000
25 H_22713 132.407 129.337 1.388 H 1 NIL_1    0.000
26 H_22691 131.578 133.111 -1.964 H 1 NIL_1    0.000
27 H_22692 130.550 134.354 -1.240 H 1 NIL_1    0.000
28 H_22693 131.362 133.169 -0.205 H 1 NIL_1    0.000
29 H_2257 133.669 132.220 -1.762 H 1 NIL_1    0.000
30 H_22581 136.219 131.756 -0.785 H 1 NIL_1    0.000
31 H_22582 135.876 132.504 -2.354 H 1 NIL_1    0.000
32 H_22551 135.129 135.614 -0.035 H 1 NIL_1    0.000
33 H_22552 135.217 135.534 -1.817 H 1 NIL_1    0.000
34 HH 139.491 134.801 -1.007 H 1 NIL_1    0.000
35 HH 136.390 133.628 1.343 H 1 NIL_1    0.000
@<TRIPOS>BOND
1 1 2 1 
2 1 3 1 
3 2 4 1 
4 4 8 1 
5 5 2 2 
6 6 3 1 
7 7 10 1 
8 7 3 1 
9 7 30 1 
10 7 31 1 
11 8 3 1 
12 9 6 1 
13 10 9 1 
14 10 29 1 
15 11 8 2 
16 12 9 1 
17 13 10 1 
18 14 12 1 
19 14 26 1 
20 14 27 1 
21 14 28 1 
22 15 12 2 
23 16 13 2 
24 17 13 1 
25 17 19 1 
26 18 17 1 
27 18 23 1 
28 18 24 1 
29 18 25 1 
30 20 19 1 
31 21 19 1 
32 22 19 1 
33 32 6 1 
34 33 6 1 
35 34 4 1 
36 35 1 1 
@<TRIPOS>SUBSTRUCTURE
1 NIL_1 1 RESIDUE 1 A NIL 1
