@<TRIPOS>MOLECULE
NIL
61 64 1 0 0
POLYMER
CHARGES


@<TRIPOS>ATOM
1 C_2336 165.743 55.4012 0.291766 C.3 1 NIL_1    0.000
2 N 167.152 54.957 0.783 N.am 1 NIL_1    0.000
3 C_2304 169.651 56.095 0.730 C.2 1 NIL_1    0.000
4 C_2316 166.596 53.584 1.277 C.3 1 NIL_1    0.000
5 C_2302 171.151 55.615 1.173 C.3 1 NIL_1    0.000
6 O 170.055 57.203 0.299 O.2 1 NIL_1    0.000
7 N 171.498 54.934 2.449 N.am 1 NIL_1    0.000
8 C_2303 171.879 54.829 0.054 C.3 1 NIL_1    0.000
9 C_2300 172.159 53.649 2.157 C.3 1 NIL_1    0.000
10 C_2313 171.450 55.467 3.705 C.2 1 NIL_1    0.000
11 C_2299 172.091 53.421 0.635 C.3 1 NIL_1    0.000
12 C_2314 170.949 56.891 3.903 C.3 1 NIL_1    0.000
13 O 171.818 54.822 4.666 O.2 1 NIL_1    0.000
14 C_2306 173.327 52.751 0.073 C.2 1 NIL_1    0.000
15 N 171.090 52.438 0.213 N.am 1 NIL_1    0.000
16 N 172.947 51.619 -0.567 N.am 1 NIL_1    0.000
17 O 174.469 53.157 0.169 O.2 1 NIL_1    0.000
18 C_2308 171.614 51.411 -0.483 C.2 1 NIL_1    0.000
19 C_2340 169.699 52.547 0.675 C.3 1 NIL_1    0.000
20 C_2338 173.860 50.734 -1.313 C.3 1 NIL_1    0.000
21 O 171.003 50.463 -0.937 O.2 1 NIL_1    0.000
22 C_2346 169.129 53.945 0.693 C.2 1 NIL_1    0.000
23 C_2342 174.102 49.332 -0.775 C.2 1 NIL_1    0.000
24 C_2348 168.730 54.743 -0.812 C.2 1 NIL_1    0.000
25 C_2356 168.793 54.750 2.246 C.2 1 NIL_1    0.000
26 C_2364 174.510 48.376 -1.617 C.2 1 NIL_1    0.000
27 C_2372 173.941 49.020 0.519 C.2 1 NIL_1    0.000
28 C_2350 168.018 56.302 -0.831 C.2 1 NIL_1    0.000
29 C_2354 168.065 56.350 2.243 C.2 1 NIL_1    0.000
30 C_2366 174.758 47.140 -1.184 C.2 1 NIL_1    0.000
31 C_2370 174.186 47.781 0.956 C.2 1 NIL_1    0.000
32 C_2352 167.674 57.121 0.716 C.2 1 NIL_1    0.000
33 C_2368 174.598 46.841 0.105 C.2 1 NIL_1    0.000
34 H_2368 174.803 45.834 0.461 H 1 NIL_1    0.000
35 H_2352 167.221 58.109 0.715 H 1 NIL_1    0.000
36 H_2370 174.053 47.538 2.008 H 1 NIL_1    0.000
37 H_2366 175.093 46.375 -1.881 H 1 NIL_1    0.000
38 H_2354 167.845 56.851 3.182 H 1 NIL_1    0.000
39 H_2350 167.755 56.844 -1.780 H 1 NIL_1    0.000
40 H_2372 173.611 49.770 1.232 H 1 NIL_1    0.000
41 H_2364 174.649 48.605 -2.671 H 1 NIL_1    0.000
42 H_2356 169.009 54.248 3.186 H 1 NIL_1    0.000
43 H_2348 168.315 55.659 -0.658 H 1 NIL_1    0.000
44 H_23381 174.828 51.230 -1.415 H 1 NIL_1    0.000
45 H_23382 173.452 50.645 -2.324 H 1 NIL_1    0.000
46 H_23401 169.640 52.126 1.682 H 1 NIL_1    0.000
47 H_23402 169.070 51.930 0.027 H 1 NIL_1    0.000
48 H_23141 170.877 57.466 2.980 H 1 NIL_1    0.000
49 H_23142 171.626 57.434 4.567 H 1 NIL_1    0.000
50 H_23143 169.960 56.875 4.365 H 1 NIL_1    0.000
51 H_23001 171.672 52.838 2.703 H 1 NIL_1    0.000
52 H_23002 173.202 53.717 2.479 H 1 NIL_1    0.000
53 H_23031 171.345 54.818 -0.897 H 1 NIL_1    0.000
54 H_23032 172.848 55.304 -0.125 H 1 NIL_1    0.000
55 H_2302 171.762 56.524 1.257 H 1 NIL_1    0.000
56 H_23161 167.197 53.089 2.041 H 1 NIL_1    0.000
57 H_23162 166.537 52.903 0.424 H 1 NIL_1    0.000
58 H_23163 165.600 53.665 1.727 H 1 NIL_1    0.000
59 H_23361 165.119 55.636 1.159 H 1 NIL_1    0.000
60 H_23362 165.263 54.611 -0.295 H 1 NIL_1    0.000
61 H_23363 165.717 56.277 -0.358 H 1 NIL_1    0.000
@<TRIPOS>BOND
1 1 2 1 
2 3 5 1 
3 3 6 2 
4 3 2 1 
5 4 2 1 
6 5 7 1 
7 7 9 1 
8 7 10 1 
9 8 5 1 
10 8 11 1 
11 9 11 1 
12 11 14 1 
13 11 15 1 
14 12 10 1 
15 13 10 2 
16 15 18 1 
17 16 14 1 
18 17 14 2 
19 18 16 1 
20 19 15 1 
21 20 16 1 
22 21 18 2 
23 22 19 1 
24 23 20 1 
25 24 22 2 
26 25 29 2 
27 25 22 1 
28 26 23 2 
29 27 31 2 
30 27 23 1 
31 28 24 1 
32 29 32 1 
33 30 26 1 
34 31 33 1 
35 32 28 2 
36 33 30 2 
37 34 33 1 
38 35 32 1 
39 36 31 1 
40 37 30 1 
41 38 29 1 
42 39 28 1 
43 40 27 1 
44 41 26 1 
45 42 25 1 
46 43 24 1 
47 44 20 1 
48 45 20 1 
49 46 19 1 
50 47 19 1 
51 48 12 1 
52 49 12 1 
53 50 12 1 
54 51 9 1 
55 52 9 1 
56 53 8 1 
57 54 8 1 
58 55 5 1 
59 56 4 1 
60 57 4 1 
61 58 4 1 
62 59 1 1 
63 60 1 1 
64 61 1 1 
@<TRIPOS>SUBSTRUCTURE
1 NIL_1 1 RESIDUE 1 A NIL 1
