@<TRIPOS>MOLECULE
NIL
48 50 1 0 0
POLYMER
CHARGES


@<TRIPOS>ATOM
1 C_2300 174.614 49.7833 -1.0111 C.3 1 NIL_1    0.000
2 C_2299 174.094 48.343 -0.900 C.3 1 NIL_1    0.000
3 N 173.671 50.530 -1.851 N.am 1 NIL_1    0.000
4 C_2303 172.595 48.425 -1.227 C.3 1 NIL_1    0.000
5 C_2306 174.833 47.396 -1.820 C.2 1 NIL_1    0.000
6 NH 174.407 47.719 0.376 N.am 1 NIL_1    0.000
7 C_2302 172.404 49.773 -1.959 C.3 1 NIL_1    0.000
8 C_2313 173.959 51.735 -2.418 C.2 1 NIL_1    0.000
9 N 175.445 46.457 -1.056 N.am 1 NIL_1    0.000
10 O 174.870 47.458 -3.034 O.2 1 NIL_1    0.000
11 C_2308 175.204 46.646 0.264 C.2 1 NIL_1    0.000
12 C_2304 171.198 50.497 -1.360 C.2 1 NIL_1    0.000
13 C_2314 172.889 52.416 -3.253 C.3 1 NIL_1    0.000
14 O 175.050 52.253 -2.272 O.2 1 NIL_1    0.000
15 C_2338 176.278 45.359 -1.582 C.3 1 NIL_1    0.000
16 O 175.620 45.979 1.191 O.2 1 NIL_1    0.000
17 O 171.338 51.296 -0.451 O.2 1 NIL_1    0.000
18 N 169.960 50.171 -1.832 N.am 1 NIL_1    0.000
19 C_2342 175.663 44.001 -1.296 C.2 1 NIL_1    0.000
20 C_2316 169.712 49.282 -2.981 C.3 1 NIL_1    0.000
21 C_2336 168.717 50.725 -1.266 C.3 1 NIL_1    0.000
22 C_2364 174.555 43.610 -1.934 C.2 1 NIL_1    0.000
23 C_2372 176.212 43.181 -0.392 C.2 1 NIL_1    0.000
24 C_2366 174.000 42.426 -1.668 C.2 1 NIL_1    0.000
25 C_2370 175.660 41.996 -0.125 C.2 1 NIL_1    0.000
26 C_2368 174.551 41.619 -0.761 C.2 1 NIL_1    0.000
27 H_2368 174.097 40.655 -0.540 H 1 NIL_1    0.000
28 H_2370 176.111 41.341 0.616 H 1 NIL_1    0.000
29 H_2366 173.096 42.121 -2.188 H 1 NIL_1    0.000
30 H_2372 177.112 43.479 0.139 H 1 NIL_1    0.000
31 H_2364 174.093 44.263 -2.673 H 1 NIL_1    0.000
32 H_23361 168.345 51.514 -1.926 H 1 NIL_1    0.000
33 H_23362 168.889 51.137 -0.267 H 1 NIL_1    0.000
34 H_23363 167.968 49.932 -1.187 H 1 NIL_1    0.000
35 H_23161 170.109 48.286 -2.770 H 1 NIL_1    0.000
36 H_23162 170.202 49.694 -3.868 H 1 NIL_1    0.000
37 H_23163 168.640 49.200 -3.183 H 1 NIL_1    0.000
38 H_23381 177.265 45.423 -1.115 H 1 NIL_1    0.000
39 H_23382 176.419 45.483 -2.659 H 1 NIL_1    0.000
40 H_23141 173.321 53.245 -3.817 H 1 NIL_1    0.000
41 H_23142 172.104 52.816 -2.609 H 1 NIL_1    0.000
42 H_23143 172.442 51.720 -3.967 H 1 NIL_1    0.000
43 H_2302 172.230 49.586 -3.021 H 1 NIL_1    0.000
44 H_23031 172.014 48.413 -0.301 H 1 NIL_1    0.000
45 H_23032 172.259 47.587 -1.843 H 1 NIL_1    0.000
46 H_23001 174.630 50.252 -0.023 H 1 NIL_1    0.000
47 H_23002 175.622 49.805 -1.438 H 1 NIL_1    0.000
48 HH 174.084 48.090 1.258 H 1 NIL_1    0.000
@<TRIPOS>BOND
1 1 2 1 
2 1 46 1 
3 1 47 1 
4 3 1 1 
5 3 8 1 
6 4 7 1 
7 4 2 1 
8 5 2 1 
9 5 10 2 
10 6 11 1 
11 6 2 1 
12 6 48 1 
13 7 3 1 
14 9 5 1 
15 9 15 1 
16 11 9 1 
17 11 16 2 
18 12 7 1 
19 12 18 1 
20 13 8 1 
21 14 8 2 
22 17 12 2 
23 19 15 1 
24 20 18 1 
25 21 18 1 
26 22 19 2 
27 23 25 2 
28 23 19 1 
29 24 22 1 
30 25 26 1 
31 26 24 2 
32 27 26 1 
33 28 25 1 
34 29 24 1 
35 30 23 1 
36 31 22 1 
37 32 21 1 
38 33 21 1 
39 34 21 1 
40 35 20 1 
41 36 20 1 
42 37 20 1 
43 38 15 1 
44 39 15 1 
45 40 13 1 
46 41 13 1 
47 42 13 1 
48 43 7 1 
49 44 4 1 
50 45 4 1 
@<TRIPOS>SUBSTRUCTURE
1 NIL_1 1 RESIDUE 1 A NIL 1
