@<TRIPOS>MOLECULE
NIL
51 53 1 0 0
POLYMER
CHARGES


@<TRIPOS>ATOM
1 C_2390 166.136 60.0876 -0.449118 C.2 1 NIL_1    0.000
2 C_2388 167.193 59.467 -0.974 C.2 1 NIL_1    0.000
3 C_2392 165.971 61.397 -0.636 C.2 1 NIL_1    0.000
4 C_2386 168.098 60.144 -1.692 C.2 1 NIL_1    0.000
5 C_2394 166.867 62.083 -1.345 C.2 1 NIL_1    0.000
6 C_2380 169.300 59.444 -2.297 C.3 1 NIL_1    0.000
7 C_2396 167.923 61.459 -1.870 C.2 1 NIL_1    0.000
8 N 170.215 58.883 -1.287 N.am 1 NIL_1    0.000
9 C_2308 170.804 59.553 -0.277 C.2 1 NIL_1    0.000
10 C_2299 170.611 57.473 -1.357 C.3 1 NIL_1    0.000
11 N 171.596 58.673 0.377 N.am 1 NIL_1    0.000
12 O 170.650 60.729 -0.005 O.2 1 NIL_1    0.000
13 C_2300 171.327 57.039 -2.651 C.3 1 NIL_1    0.000
14 C_2303 169.487 56.437 -1.164 C.3 1 NIL_1    0.000
15 C_2306 171.563 57.441 -0.179 C.2 1 NIL_1    0.000
16 C_2338 172.384 59.006 1.572 C.3 1 NIL_1    0.000
17 N 171.080 55.597 -2.810 N.am 1 NIL_1    0.000
18 C_2302 170.014 55.176 -1.875 C.3 1 NIL_1    0.000
19 O 172.189 56.477 0.218 O.2 1 NIL_1    0.000
20 C_2313 171.735 54.766 -3.665 C.2 1 NIL_1    0.000
21 C_2304 168.881 54.324 -2.458 C.2 1 NIL_1    0.000
22 C_2314 172.757 55.389 -4.598 C.3 1 NIL_1    0.000
23 O 171.514 53.571 -3.691 O.2 1 NIL_1    0.000
24 O 168.452 53.389 -1.811 O.2 1 NIL_1    0.000
25 N 168.409 54.564 -3.717 N.am 1 NIL_1    0.000
26 C_2316 167.583 53.584 -4.443 C.3 1 NIL_1    0.000
27 C_2336 168.564 55.819 -4.474 C.3 1 NIL_1    0.000
28 H_23361 167.683 55.987 -5.098 H 1 NIL_1    0.000
29 H_23362 169.453 55.764 -5.108 H 1 NIL_1    0.000
30 H_23363 168.657 56.664 -3.794 H 1 NIL_1    0.000
31 H_23161 166.542 53.672 -4.126 H 1 NIL_1    0.000
32 H_23162 167.938 52.572 -4.231 H 1 NIL_1    0.000
33 H_23163 167.652 53.758 -5.522 H 1 NIL_1    0.000
34 H_23141 173.564 55.858 -4.031 H 1 NIL_1    0.000
35 H_23142 172.286 56.147 -5.227 H 1 NIL_1    0.000
36 H_23143 173.195 54.627 -5.247 H 1 NIL_1    0.000
37 H_2302 170.498 54.549 -1.120 H 1 NIL_1    0.000
38 H_23381 173.446 59.046 1.312 H 1 NIL_1    0.000
39 H_23382 172.225 58.238 2.335 H 1 NIL_1    0.000
40 H_23383 172.072 59.974 1.972 H 1 NIL_1    0.000
41 H_23031 168.565 56.774 -1.638 H 1 NIL_1    0.000
42 H_23032 169.274 56.246 -0.109 H 1 NIL_1    0.000
43 H_23001 170.908 57.557 -3.518 H 1 NIL_1    0.000
44 H_23002 172.398 57.251 -2.588 H 1 NIL_1    0.000
45 H_2396 168.646 62.031 -2.447 H 1 NIL_1    0.000
46 H_23801 168.951 58.647 -2.956 H 1 NIL_1    0.000
47 H_23802 169.870 60.147 -2.911 H 1 NIL_1    0.000
48 H_2394 166.736 63.151 -1.498 H 1 NIL_1    0.000
49 H_2392 165.108 61.903 -0.211 H 1 NIL_1    0.000
50 H_2388 167.311 58.400 -0.810 H 1 NIL_1    0.000
51 H_2390 165.409 59.524 0.130 H 1 NIL_1    0.000
@<TRIPOS>BOND
1 1 2 1 
2 2 4 2 
3 3 1 2 
4 4 6 1 
5 5 3 1 
6 6 8 1 
7 7 5 2 
8 7 4 1 
9 8 9 1 
10 9 11 1 
11 10 15 1 
12 10 8 1 
13 11 15 1 
14 12 9 2 
15 13 10 1 
16 14 18 1 
17 14 10 1 
18 16 11 1 
19 17 13 1 
20 17 20 1 
21 18 17 1 
22 19 15 2 
23 21 18 1 
24 21 25 1 
25 22 20 1 
26 23 20 2 
27 24 21 2 
28 26 25 1 
29 27 25 1 
30 28 27 1 
31 29 27 1 
32 30 27 1 
33 31 26 1 
34 32 26 1 
35 33 26 1 
36 34 22 1 
37 35 22 1 
38 36 22 1 
39 37 18 1 
40 38 16 1 
41 39 16 1 
42 40 16 1 
43 41 14 1 
44 42 14 1 
45 43 13 1 
46 44 13 1 
47 45 7 1 
48 46 6 1 
49 47 6 1 
50 48 5 1 
51 49 3 1 
52 50 2 1 
53 51 1 1 
@<TRIPOS>SUBSTRUCTURE
1 NIL_1 1 RESIDUE 1 A NIL 1
