@<TRIPOS>MOLECULE
NIL
38 39 1 0 0
POLYMER
CHARGES


@<TRIPOS>ATOM
1 C_2302 174.152 54.7994 1.43635 C.3 1 NIL_1    0.000
2 N 174.536 56.159 1.867 N.am 1 NIL_1    0.000
3 C_2303 175.451 53.977 1.332 C.3 1 NIL_1    0.000
4 C_2304 173.161 54.118 2.381 C.2 1 NIL_1    0.000
5 C_2300 175.999 56.304 1.782 C.3 1 NIL_1    0.000
6 C_2313 173.664 57.134 2.245 C.2 1 NIL_1    0.000
7 C_2299 176.535 55.034 1.098 C.3 1 NIL_1    0.000
8 O 173.422 54.015 3.565 O.2 1 NIL_1    0.000
9 N 171.990 53.634 1.873 N.am 1 NIL_1    0.000
10 C_2314 174.252 58.441 2.742 C.3 1 NIL_1    0.000
11 O 172.460 56.975 2.193 O.2 1 NIL_1    0.000
12 C_2306 176.805 55.258 -0.374 C.2 1 NIL_1    0.000
13 NH 177.868 54.640 1.527 N.am 1 NIL_1    0.000
14 C_2316 170.977 52.968 2.710 C.3 1 NIL_1    0.000
15 C_2336 171.561 53.759 0.467 C.3 1 NIL_1    0.000
16 N 178.113 54.987 -0.602 N.am 1 NIL_1    0.000
17 O 175.998 55.625 -1.207 O.2 1 NIL_1    0.000
18 C_2308 178.765 54.625 0.527 C.2 1 NIL_1    0.000
19 C_2338 178.765 55.101 -1.913 C.3 1 NIL_1    0.000
20 O 179.942 54.341 0.633 O.2 1 NIL_1    0.000
21 H_23381 179.484 54.286 -2.035 H 1 NIL_1    0.000
22 H_23382 179.289 56.060 -1.970 H 1 NIL_1    0.000
23 H_23383 178.022 55.042 -2.712 H 1 NIL_1    0.000
24 H_23361 172.338 53.371 -0.195 H 1 NIL_1    0.000
25 H_23362 171.384 54.814 0.242 H 1 NIL_1    0.000
26 H_23363 170.642 53.194 0.288 H 1 NIL_1    0.000
27 H_23161 171.118 53.226 3.763 H 1 NIL_1    0.000
28 H_23162 171.061 51.885 2.586 H 1 NIL_1    0.000
29 H_23163 169.976 53.292 2.411 H 1 NIL_1    0.000
30 H_23141 173.461 59.110 3.087 H 1 NIL_1    0.000
31 H_23142 174.804 58.940 1.942 H 1 NIL_1    0.000
32 H_23143 174.929 58.260 3.579 H 1 NIL_1    0.000
33 H_23001 176.404 56.388 2.794 H 1 NIL_1    0.000
34 H_23002 176.265 57.193 1.202 H 1 NIL_1    0.000
35 H_23031 175.654 53.462 2.276 H 1 NIL_1    0.000
36 H_23032 175.401 53.228 0.537 H 1 NIL_1    0.000
37 H_2302 173.730 54.900 0.436 H 1 NIL_1    0.000
38 HH 178.089 54.422 2.486 H 1 NIL_1    0.000
@<TRIPOS>BOND
1 1 2 1 
2 2 5 1 
3 2 6 1 
4 3 1 1 
5 3 7 1 
6 4 1 1 
7 4 9 1 
8 5 7 1 
9 7 13 1 
10 8 4 2 
11 10 6 1 
12 11 6 2 
13 12 7 1 
14 12 17 2 
15 13 18 1 
16 14 9 1 
17 15 9 1 
18 16 12 1 
19 16 18 1 
20 19 16 1 
21 20 18 2 
22 21 19 1 
23 22 19 1 
24 23 19 1 
25 24 15 1 
26 25 15 1 
27 26 15 1 
28 27 14 1 
29 28 14 1 
30 29 14 1 
31 30 10 1 
32 31 10 1 
33 32 10 1 
34 33 5 1 
35 34 5 1 
36 35 3 1 
37 36 3 1 
38 37 1 1 
39 38 13 1 
@<TRIPOS>SUBSTRUCTURE
1 NIL_1 1 RESIDUE 1 A NIL 1
