@<TRIPOS>MOLECULE
NIL
41 42 1 0 0
POLYMER
CHARGES


@<TRIPOS>ATOM
1 N 170.921 51.8787 -1.39264 N.am 1 NIL_1    0.000
2 C_2308 172.243 51.924 -1.649 C.2 1 NIL_1    0.000
3 C_2299 170.385 53.143 -0.878 C.3 1 NIL_1    0.000
4 C_2340 170.033 50.717 -1.555 C.3 1 NIL_1    0.000
5 N 172.671 53.165 -1.321 N.am 1 NIL_1    0.000
6 O 172.922 51.016 -2.089 O.2 1 NIL_1    0.000
7 C_2300 169.756 53.073 0.524 C.3 1 NIL_1    0.000
8 C_2303 169.327 53.840 -1.751 C.3 1 NIL_1    0.000
9 C_2306 171.670 53.945 -0.852 C.2 1 NIL_1    0.000
10 C_2338 174.061 53.619 -1.486 C.3 1 NIL_1    0.000
11 N 168.746 54.138 0.604 N.am 1 NIL_1    0.000
12 C_2302 168.508 54.686 -0.753 C.3 1 NIL_1    0.000
13 O 171.792 55.097 -0.478 O.2 1 NIL_1    0.000
14 C_2313 168.221 54.568 1.783 C.2 1 NIL_1    0.000
15 C_2304 167.057 54.824 -1.225 C.2 1 NIL_1    0.000
16 C_2314 167.343 55.805 1.772 C.3 1 NIL_1    0.000
17 O 168.471 53.995 2.827 O.2 1 NIL_1    0.000
18 O 166.739 55.831 -1.827 O.2 1 NIL_1    0.000
19 N 166.128 53.857 -0.954 N.am 1 NIL_1    0.000
20 C_2316 166.398 52.518 -0.403 C.3 1 NIL_1    0.000
21 C_2336 164.706 54.008 -1.308 C.3 1 NIL_1    0.000
22 H_23361 164.425 55.064 -1.340 H 1 NIL_1    0.000
23 H_23362 164.084 53.510 -0.559 H 1 NIL_1    0.000
24 H_23363 164.525 53.555 -2.287 H 1 NIL_1    0.000
25 H_23161 166.360 52.560 0.688 H 1 NIL_1    0.000
26 H_23162 167.373 52.157 -0.729 H 1 NIL_1    0.000
27 H_23163 165.645 51.808 -0.753 H 1 NIL_1    0.000
28 H_23141 167.784 56.589 1.153 H 1 NIL_1    0.000
29 H_23142 167.237 56.198 2.785 H 1 NIL_1    0.000
30 H_23143 166.351 55.572 1.383 H 1 NIL_1    0.000
31 H_2302 168.927 55.696 -0.758 H 1 NIL_1    0.000
32 H_23381 174.352 54.246 -0.640 H 1 NIL_1    0.000
33 H_23382 174.142 54.193 -2.411 H 1 NIL_1    0.000
34 H_23383 174.733 52.759 -1.537 H 1 NIL_1    0.000
35 H_23031 168.684 53.105 -2.236 H 1 NIL_1    0.000
36 H_23032 169.775 54.454 -2.537 H 1 NIL_1    0.000
37 H_23001 169.250 52.119 0.682 H 1 NIL_1    0.000
38 H_23002 170.517 53.205 1.298 H 1 NIL_1    0.000
39 H_23401 170.611 49.847 -1.875 H 1 NIL_1    0.000
40 H_23402 169.271 50.935 -2.308 H 1 NIL_1    0.000
41 H_23403 169.548 50.480 -0.605 H 1 NIL_1    0.000
@<TRIPOS>BOND
1 1 2 1 
2 2 5 1 
3 3 8 1 
4 3 9 1 
5 3 1 1 
6 4 1 1 
7 5 9 1 
8 6 2 2 
9 7 3 1 
10 8 12 1 
11 10 5 1 
12 11 7 1 
13 11 12 1 
14 11 14 1 
15 13 9 2 
16 15 12 1 
17 16 14 1 
18 17 14 2 
19 18 15 2 
20 19 15 1 
21 20 19 1 
22 21 19 1 
23 22 21 1 
24 23 21 1 
25 24 21 1 
26 25 20 1 
27 26 20 1 
28 27 20 1 
29 28 16 1 
30 29 16 1 
31 30 16 1 
32 31 12 1 
33 32 10 1 
34 33 10 1 
35 34 10 1 
36 35 8 1 
37 36 8 1 
38 37 7 1 
39 38 7 1 
40 39 4 1 
41 40 4 1 
42 41 4 1 
@<TRIPOS>SUBSTRUCTURE
1 NIL_1 1 RESIDUE 1 A NIL 1
