@<TRIPOS>MOLECULE
NIL
162 171 3 0 0
POLYMER
CHARGES


@<TRIPOS>ATOM
1 C_1825 143.415 113.705 -1.25568 c3 1 NIL_1    0.000
2 N 144.527 114.606 -0.891 n 1 NIL_1    0.000
3 C_1826 142.197 114.611 -1.534 c3 1 NIL_1    0.000
4 C_1842 144.091 116.004 -1.084 c3 1 NIL_1    0.000
5 C_1844 145.709 114.217 -0.332 c 1 NIL_1    0.000
6 C_1827 142.831 115.936 -1.965 c3 1 NIL_1    0.000
7 C_1846 141.183 114.080 -2.521 c 1 NIL_1    0.000
8 NH 141.327 114.779 -0.379 n 1 NIL_1    0.000
9 C_1843 143.776 116.653 0.267 c 1 NIL_1    0.000
10 O 145.968 113.042 -0.155 o 1 NIL_1    0.000
11 C_1835 146.703 115.337 -0.018 c3 1 NIL_1    0.000
12 N 139.968 114.096 -1.920 n 1 NIL_1    0.000
13 O 141.409 113.715 -3.658 o 1 NIL_1    0.000
14 C_1848 140.038 114.523 -0.640 c 1 NIL_1    0.000
15 O 143.556 115.958 1.244 o 1 NIL_1    0.000
16 N 143.733 118.011 0.360 n 1 NIL_1    0.000
17 N 147.711 115.175 1.057 n 1 NIL_1    0.000
18 C_1866 138.699 113.746 -2.579 c3 1 NIL_1    0.000
19 O 139.117 114.661 0.140 o 1 NIL_1    0.000
20 C_1840 144.234 118.927 -0.703 c3 1 NIL_1    0.000
21 C_1872 143.392 118.646 1.661 c3 1 NIL_1    0.000
22 C_1833 148.788 116.012 1.151 c 1 NIL_1    0.000
23 C_1870 147.273 114.395 2.236 c3 1 NIL_1    0.000
24 C_1867 137.937 112.555 -2.020 c2 1 NIL_1    0.000
25 C_1841 143.603 120.307 -0.680 c 1 NIL_1    0.000
26 C_1879 141.881 118.802 1.919 c3 1 NIL_1    0.000
27 O 149.433 116.091 2.180 o 1 NIL_1    0.000
28 C_1832 149.199 116.802 -0.097 c3 1 NIL_1    0.000
29 C_1873 148.160 113.154 2.446 c3 1 NIL_1    0.000
30 C_2172 138.536 111.592 -1.309 c2 1 NIL_1    0.000
31 C_2180 136.625 112.458 -2.248 c2 1 NIL_1    0.000
32 O 142.421 120.405 -0.953 o 1 NIL_1    0.000
33 O 141.230 117.514 1.915 os 1 NIL_1    0.000
34 C_1815 149.795 115.833 -1.141 c3 1 NIL_1    0.000
35 N 150.260 117.797 0.172 n 1 NIL_1    0.000
36 O 147.849 112.581 3.733 os 1 NIL_1    0.000
37 C_2174 137.835 110.561 -0.831 c2 1 NIL_1    0.000
38 C_2178 135.924 111.426 -1.775 c2 1 NIL_1    0.000
39 C_1881 139.814 117.566 2.174 c3 1 NIL_1    0.000
40 C_1814 151.285 115.821 -0.793 c3 1 NIL_1    0.000
41 C_1813 151.545 117.268 -0.335 c3 1 NIL_1    0.000
42 C_1830 150.124 119.013 0.774 c 1 NIL_1    0.000
43 C_1875 148.854 111.686 4.255 c3 1 NIL_1    0.000
44 C_2176 136.518 110.469 -1.059 c2 1 NIL_1    0.000
45 C_1850 152.166 115.327 -1.915 c 1 NIL_1    0.000
46 NH 151.604 114.818 0.212 n 1 NIL_1    0.000
47 O 151.099 119.718 0.948 o 1 NIL_1    0.000
48 C_1829 148.738 119.475 1.241 c3 1 NIL_1    0.000
49 O 135.730 109.438 -0.610 os 1 NIL_1    0.000
50 N 152.779 114.188 -1.504 n 1 NIL_1    0.000
51 O 152.290 115.848 -3.007 o 1 NIL_1    0.000
52 C_1852 152.432 113.861 -0.235 c 1 NIL_1    0.000
53 N 147.961 120.434 0.391 n 1 NIL_1    0.000
54 C_2273 136.216 108.586 0.454 c3 1 NIL_1    0.000
55 C_1864 153.646 113.352 -2.357 c3 1 NIL_1    0.000
56 O 152.783 112.882 0.392 o 1 NIL_1    0.000
57 C_1871 148.772 121.186 -0.602 c3 1 NIL_1    0.000
58 C_1865 155.049 113.142 -1.814 c2 1 NIL_1    0.000
59 C_1876 149.533 122.439 -0.085 c3 1 NIL_1    0.000
60 C_2196 155.417 111.950 -1.334 c2 1 NIL_1    0.000
61 C_2188 155.941 114.137 -1.810 c2 1 NIL_1    0.000
62 O 149.862 122.403 1.328 os 1 NIL_1    0.000
63 C_2194 156.644 111.755 -0.851 c2 1 NIL_1    0.000
64 C_2190 157.173 113.943 -1.332 c2 1 NIL_1    0.000
65 C_1878 148.873 122.918 2.252 c3 1 NIL_1    0.000
66 C_2192 157.537 112.756 -0.840 c2 1 NIL_1    0.000
67 O 158.814 112.620 -0.357 os 1 NIL_1    0.000
68 C_2269 159.050 111.649 0.692 c3 1 NIL_1    0.000
69 H_22691 158.348 111.827 1.512 h1 1 NIL_1    0.000
70 H_22692 160.073 111.767 1.057 h1 1 NIL_1    0.000
71 H_22693 158.923 110.636 0.300 h1 1 NIL_1    0.000
72 H_18781 149.346 123.069 3.226 h1 1 NIL_1    0.000
73 H_18782 148.059 122.201 2.365 h1 1 NIL_1    0.000
74 H_18783 148.479 123.870 1.883 h1 1 NIL_1    0.000
75 H_2190 157.883 114.767 -1.343 ha 1 NIL_1    0.000
76 H_2194 156.897 110.768 -0.473 ha 1 NIL_1    0.000
77 H_2188 155.667 115.116 -2.198 ha 1 NIL_1    0.000
78 H_2196 154.711 111.123 -1.330 ha 1 NIL_1    0.000
79 H_18761 150.474 122.511 -0.637 h1 1 NIL_1    0.000
80 H_18762 148.966 123.348 -0.291 h1 1 NIL_1    0.000
81 H_18711 148.143 121.510 -1.429 h1 1 NIL_1    0.000
82 H_18712 149.497 120.510 -1.058 h1 1 NIL_1    0.000
83 H_18641 153.713 113.802 -3.351 h1 1 NIL_1    0.000
84 H_18642 153.154 112.382 -2.476 h1 1 NIL_1    0.000
85 H_22731 135.434 107.865 0.706 h1 1 NIL_1    0.000
86 H_22732 136.449 109.196 1.331 h1 1 NIL_1    0.000
87 H_22733 137.104 108.046 0.119 h1 1 NIL_1    0.000
88 H_18291 148.126 118.592 1.425 h1 1 NIL_1    0.000
89 H_18292 148.903 119.948 2.214 h1 1 NIL_1    0.000
90 H_18751 149.805 112.223 4.328 h1 1 NIL_1    0.000
91 H_18752 148.965 110.823 3.592 h1 1 NIL_1    0.000
92 H_18753 148.544 111.353 5.249 h1 1 NIL_1    0.000
93 H_18131 152.321 117.306 0.436 h1 1 NIL_1    0.000
94 H_18132 151.848 117.876 -1.190 h1 1 NIL_1    0.000
95 H_18811 139.644 118.037 3.146 h1 1 NIL_1    0.000
96 H_18812 139.413 116.551 2.183 h1 1 NIL_1    0.000
97 H_18813 139.328 118.146 1.387 h1 1 NIL_1    0.000
98 H_2178 134.857 111.369 -1.975 ha 1 NIL_1    0.000
99 H_2174 138.366 109.804 -0.261 ha 1 NIL_1    0.000
100 H_18151 149.357 114.831 -1.115 hc 1 NIL_1    0.000
101 H_18152 149.646 116.248 -2.141 hc 1 NIL_1    0.000
102 H_2180 136.115 113.224 -2.827 ha 1 NIL_1    0.000
103 H_2172 139.603 111.634 -1.108 ha 1 NIL_1    0.000
104 H_18731 147.997 112.411 1.660 h1 1 NIL_1    0.000
105 H_18732 149.212 113.457 2.446 h1 1 NIL_1    0.000
106 H_1832 148.322 117.308 -0.510 h1 1 NIL_1    0.000
107 H_18791 141.731 119.264 2.899 h1 1 NIL_1    0.000
108 H_18792 141.425 119.433 1.154 h1 1 NIL_1    0.000
109 H_18701 146.228 114.089 2.147 h1 1 NIL_1    0.000
110 H_18702 147.345 115.035 3.121 h1 1 NIL_1    0.000
111 H_18721 143.822 119.643 1.726 h1 1 NIL_1    0.000
112 H_18722 143.833 118.062 2.474 h1 1 NIL_1    0.000
113 H_18401 143.979 118.525 -1.687 h1 1 NIL_1    0.000
114 H_18402 145.320 118.995 -0.651 h1 1 NIL_1    0.000
115 H_18661 138.883 113.572 -3.642 h1 1 NIL_1    0.000
116 H_18662 138.057 114.628 -2.506 h1 1 NIL_1    0.000
117 H_18351 147.188 115.534 -0.974 h1 1 NIL_1    0.000
118 H_18352 146.164 116.240 0.257 h1 1 NIL_1    0.000
119 H_18271 142.163 116.791 -1.834 hc 1 NIL_1    0.000
120 H_18272 143.128 115.885 -3.016 hc 1 NIL_1    0.000
121 H_1842 144.875 116.570 -1.594 h1 1 NIL_1    0.000
122 H_18251 143.202 113.001 -0.446 h1 1 NIL_1    0.000
123 H_18252 143.696 113.155 -2.157 h1 1 NIL_1    0.000
124 HH 151.154 114.797 1.115 hn 1 NIL_1    0.000
125 HH 141.660 115.144 0.502 hn 1 NIL_1    0.000
126 C_1837 145.802 121.620 -0.224 c3 2 NIL_2    0.000
127 C_1818 145.983 123.054 0.331 c3 2 NIL_2    0.000
128 N 144.325 121.414 -0.333 n 2 NIL_2    0.000
129 C_1838 146.627 120.649 0.644 c 2 NIL_2    0.000
130 C_1817 144.681 123.804 0.031 c3 2 NIL_2    0.000
131 C_1816 143.636 122.707 -0.173 c3 2 NIL_2    0.000
132 O 146.113 120.113 1.605 o 2 NIL_2    0.000
133 C_1854 144.794 124.724 -1.163 c 2 NIL_2    0.000
134 NH 144.302 124.783 1.036 n 2 NIL_2    0.000
135 N 144.497 125.986 -0.765 n 2 NIL_2    0.000
136 O 145.103 124.394 -2.292 o 2 NIL_2    0.000
137 C_1856 144.183 126.031 0.556 c 2 NIL_2    0.000
138 O 143.851 126.995 1.217 o 2 NIL_2    0.000
139 H_18161 142.988 122.642 0.706 h1 2 NIL_2    0.000
140 H_18162 143.018 122.924 -1.050 h1 2 NIL_2    0.000
141 H_18181 146.118 123.015 1.415 hc 2 NIL_2    0.000
142 H_18182 146.845 123.557 -0.107 hc 2 NIL_2    0.000
143 H_1837 146.177 121.577 -1.247 h1 2 NIL_2    0.000
144 HH 144.097 124.526 1.989 hn 2 NIL_2    0.000
145 C_2204 144.944 129.299 -0.544 c2 3 NIL_3    0.000
146 C_1869 144.105 128.509 -1.220 c2 3 NIL_3    0.000
147 C_2206 144.561 130.509 -0.131 c2 3 NIL_3    0.000
148 C_1868 144.550 127.136 -1.693 c3 3 NIL_3    0.000
149 C_2212 142.872 128.954 -1.475 c2 3 NIL_3    0.000
150 C_2208 143.325 130.957 -0.393 c2 3 NIL_3    0.000
151 C_2210 142.485 130.164 -1.063 c2 3 NIL_3    0.000
152 O 142.862 132.188 0.000 os 3 NIL_3    0.000
153 C_2271 143.814 133.244 0.283 c3 3 NIL_3    0.000
154 H_22711 143.262 134.165 0.485 h1 3 NIL_3    0.000
155 H_22712 144.462 133.393 -0.585 h1 3 NIL_3    0.000
156 H_22713 144.410 132.982 1.161 h1 3 NIL_3    0.000
157 H_2210 141.476 130.507 -1.283 ha 3 NIL_3    0.000
158 H_2212 142.170 128.331 -2.024 ha 3 NIL_3    0.000
159 H_18681 143.953 126.868 -2.569 h1 3 NIL_3    0.000
160 H_18682 145.585 127.218 -2.034 h1 3 NIL_3    0.000
161 H_2206 145.275 131.112 0.422 ha 3 NIL_3    0.000
162 H_2204 145.951 128.955 -0.320 ha 3 NIL_3    0.000
@<TRIPOS>BOND
1 1 122 1 
2 1 123 1 
3 2 1 1 
4 2 5 1 
5 3 1 1 
6 4 6 1 
7 4 2 1 
8 4 9 1 
9 4 121 1 
10 6 3 1 
11 6 119 1 
12 6 120 1 
13 7 3 1 
14 8 14 1 
15 8 3 1 
16 8 125 1 
17 10 5 2 
18 11 17 1 
19 11 5 1 
20 11 117 1 
21 11 118 1 
22 12 7 1 
23 12 18 1 
24 13 7 2 
25 14 12 1 
26 15 9 2 
27 16 9 1 
28 16 21 1 
29 17 22 1 
30 17 23 1 
31 18 115 1 
32 18 116 1 
33 19 14 2 
34 20 16 1 
35 20 25 1 
36 20 113 1 
37 20 114 1 
38 21 26 1 
39 21 111 1 
40 21 112 1 
41 23 109 1 
42 23 110 1 
43 24 18 1 
44 24 30 2 
45 24 31 1 
46 26 107 1 
47 26 108 1 
48 27 22 2 
49 28 34 1 
50 28 35 1 
51 28 22 1 
52 28 106 1 
53 29 23 1 
54 29 104 1 
55 29 105 1 
56 30 103 1 
57 31 38 2 
58 31 102 1 
59 32 25 2 
60 33 26 1 
61 34 40 1 
62 34 100 1 
63 34 101 1 
64 35 41 1 
65 35 42 1 
66 36 29 1 
67 37 30 1 
68 37 99 1 
69 38 44 1 
70 38 98 1 
71 39 33 1 
72 39 95 1 
73 39 96 1 
74 39 97 1 
75 40 41 1 
76 41 93 1 
77 41 94 1 
78 43 36 1 
79 43 90 1 
80 43 91 1 
81 43 92 1 
82 44 37 2 
83 44 49 1 
84 45 40 1 
85 45 51 2 
86 46 52 1 
87 46 40 1 
88 46 124 1 
89 47 42 2 
90 48 53 1 
91 48 42 1 
92 48 88 1 
93 48 89 1 
94 50 45 1 
95 50 55 1 
96 52 50 1 
97 53 129 1 
98 53 57 1 
99 54 49 1 
100 54 85 1 
101 54 86 1 
102 54 87 1 
103 55 58 1 
104 55 83 1 
105 55 84 1 
106 56 52 2 
107 57 81 1 
108 57 82 1 
109 58 60 1 
110 59 57 1 
111 59 62 1 
112 59 79 1 
113 59 80 1 
114 60 78 1 
115 61 64 1 
116 61 58 2 
117 61 77 1 
118 63 60 2 
119 63 76 1 
120 64 75 1 
121 65 62 1 
122 65 72 1 
123 65 73 1 
124 65 74 1 
125 66 67 1 
126 66 63 1 
127 66 64 2 
128 68 67 1 
129 68 69 1 
130 68 70 1 
131 68 71 1 
132 126 127 1 
133 126 143 1 
134 127 141 1 
135 127 142 1 
136 128 131 1 
137 128 25 1 
138 128 126 1 
139 129 126 1 
140 130 131 1 
141 130 127 1 
142 131 139 1 
143 131 140 1 
144 132 129 2 
145 133 130 1 
146 133 136 2 
147 134 137 1 
148 134 130 1 
149 134 144 1 
150 135 133 1 
151 135 148 1 
152 137 135 1 
153 137 138 2 
154 145 162 1 
155 146 148 1 
156 146 145 2 
157 146 149 1 
158 147 145 1 
159 147 161 1 
160 148 159 1 
161 148 160 1 
162 149 151 2 
163 150 147 2 
164 150 151 1 
165 150 152 1 
166 153 152 1 
167 154 153 1 
168 155 153 1 
169 156 153 1 
170 157 151 1 
171 158 149 1 
@<TRIPOS>SUBSTRUCTURE
1 NIL_1 1 RESIDUE 1 A NIL 1
2 NIL_2 126 RESIDUE 1 A NIL 1
3 NIL_3 145 RESIDUE 1 A NIL 1
