@<TRIPOS>MOLECULE
NIL
210 219 1 0 0
POLYMER
CHARGES


@<TRIPOS>ATOM
1 C_2676 140.545 98.9045 -0.188172 C.3 1 NIL_1    0.000
2 C_2674 141.397 97.893 0.606 C.3 1 NIL_1    0.000
3 C_2669 141.832 96.735 -0.333 C.3 1 NIL_1    0.000
4 C_2675 140.584 97.380 1.820 C.3 1 NIL_1    0.000
5 C_2623 143.011 95.860 0.174 C.3 1 NIL_1    0.000
6 NH 142.521 94.880 1.161 N.am 1 NIL_1    0.000
7 C_2624 144.225 96.600 0.740 C.2 1 NIL_1    0.000
8 C_2626 142.357 93.547 0.999 C.2 1 NIL_1    0.000
9 O 144.388 96.711 1.940 O.2 1 NIL_1    0.000
10 N 145.151 97.062 -0.147 N.am 1 NIL_1    0.000
11 C_2625 142.916 92.895 -0.262 C.3 1 NIL_1    0.000
12 O 141.780 92.913 1.859 O.2 1 NIL_1    0.000
13 C_2540 144.788 97.984 -1.238 C.3 1 NIL_1    0.000
14 C_2620 146.556 97.394 0.165 C.3 1 NIL_1    0.000
15 C_2610 141.879 92.908 -1.400 C.3 1 NIL_1    0.000
16 N 143.413 91.516 -0.102 N.am 1 NIL_1    0.000
17 C_2541 145.734 99.208 -1.128 C.3 1 NIL_1    0.000
18 C_2621 147.203 96.793 1.408 C.2 1 NIL_1    0.000
19 C_2601 146.629 98.923 0.091 C.3 1 NIL_1    0.000
20 C_2609 141.685 91.429 -1.781 C.3 1 NIL_1    0.000
21 C_2608 142.949 90.718 -1.252 C.3 1 NIL_1    0.000
22 C_2627 144.324 91.162 0.848 C.2 1 NIL_1    0.000
23 C_2637 146.595 99.375 -2.359 C.2 1 NIL_1    0.000
24 N 145.093 100.526 -1.110 N.am 1 NIL_1    0.000
25 O 147.361 97.473 2.403 O.2 1 NIL_1    0.000
26 NH 147.631 95.500 1.473 N.am 1 NIL_1    0.000
27 C_2629 141.458 91.291 -3.269 C.2 1 NIL_1    0.000
28 N 140.416 90.857 -1.315 N.am 1 NIL_1    0.000
29 O 144.634 91.945 1.727 O.2 1 NIL_1    0.000
30 C_2618 144.951 89.770 0.789 C.3 1 NIL_1    0.000
31 N 146.467 100.650 -2.792 N.am 1 NIL_1    0.000
32 O 147.306 98.529 -2.864 O.2 1 NIL_1    0.000
33 C_2639 145.561 101.350 -2.072 C.2 1 NIL_1    0.000
34 C_2866 144.047 100.804 -0.103 C.3 1 NIL_1    0.000
35 C_2612 147.600 94.318 0.563 C.3 1 NIL_1    0.000
36 N 140.201 90.831 -3.478 N.am 1 NIL_1    0.000
37 O 142.259 91.573 -4.141 O.2 1 NIL_1    0.000
38 C_2631 139.562 90.562 -2.313 C.2 1 NIL_1    0.000
39 C_2899 140.195 90.565 0.112 C.3 1 NIL_1    0.000
40 NH 146.139 89.719 1.662 N.am 1 NIL_1    0.000
41 C_2670 143.933 88.687 1.246 C.3 1 NIL_1    0.000
42 C_2649 147.316 101.247 -3.834 C.3 1 NIL_1    0.000
43 O 145.233 102.506 -2.265 O.2 1 NIL_1    0.000
44 C_2870 144.032 102.232 0.398 C.2 1 NIL_1    0.000
45 C_2613 148.771 93.399 0.929 C.2 1 NIL_1    0.000
46 C_2668 147.583 94.504 -0.990 C.3 1 NIL_1    0.000
47 C_2647 139.609 90.710 -4.827 C.3 1 NIL_1    0.000
48 O 138.436 90.123 -2.170 O.2 1 NIL_1    0.000
49 C_2901 139.007 91.299 0.693 C.2 1 NIL_1    0.000
50 C_2616 147.244 90.501 1.600 C.2 1 NIL_1    0.000
51 C_2677 144.086 87.324 0.517 C.3 1 NIL_1    0.000
52 C_2650 148.539 101.856 -3.175 C.2 1 NIL_1    0.000
53 O 145.178 102.555 1.054 O.3 1 NIL_1    0.000
54 O 143.126 103.000 0.136 O.2 1 NIL_1    0.000
55 O 149.764 93.838 1.478 O.2 1 NIL_1    0.000
56 N 148.760 92.109 0.497 N.am 1 NIL_1    0.000
57 C_2671 148.955 94.818 -1.670 C.3 1 NIL_1    0.000
58 C_2648 138.511 89.681 -5.023 C.2 1 NIL_1    0.000
59 O 138.776 92.471 0.462 O.2 1 NIL_1    0.000
60 O 138.209 90.459 1.400 O.3 1 NIL_1    0.000
61 C_2615 147.603 91.216 0.293 C.3 1 NIL_1    0.000
62 O 147.944 90.574 2.590 O.2 1 NIL_1    0.000
63 C_2678 142.963 86.372 0.982 C.3 1 NIL_1    0.000
64 C_2679 145.459 86.656 0.758 C.3 1 NIL_1    0.000
65 C_2660 148.611 103.172 -2.945 C.2 1 NIL_1    0.000
66 C_2664 149.559 101.080 -2.786 C.2 1 NIL_1    0.000
67 C_2879 145.489 103.895 1.550 C.3 1 NIL_1    0.000
68 C_2598 149.979 91.309 0.333 C.3 1 NIL_1    0.000
69 C_2672 149.634 96.121 -1.191 C.3 1 NIL_1    0.000
70 C_2673 148.782 94.857 -3.203 C.3 1 NIL_1    0.000
71 C_2651 138.786 88.372 -4.971 C.2 1 NIL_1    0.000
72 C_2655 137.248 90.065 -5.241 C.2 1 NIL_1    0.000
73 C_2910 136.945 90.847 2.018 C.3 1 NIL_1    0.000
74 C_2600 148.077 90.190 -0.759 C.3 1 NIL_1    0.000
75 C_2661 149.677 103.698 -2.337 C.2 1 NIL_1    0.000
76 C_2663 150.622 101.602 -2.175 C.2 1 NIL_1    0.000
77 C_2881 145.589 104.902 0.374 C.3 1 NIL_1    0.000
78 C_2883 146.874 103.789 2.228 C.3 1 NIL_1    0.000
79 C_2885 144.444 104.344 2.603 C.3 1 NIL_1    0.000
80 C_2599 149.618 90.148 -0.617 C.3 1 NIL_1    0.000
81 C_2652 137.820 87.467 -5.131 C.2 1 NIL_1    0.000
82 C_2654 136.280 89.163 -5.404 C.2 1 NIL_1    0.000
83 C_2912 136.430 89.576 2.732 C.3 1 NIL_1    0.000
84 C_2914 135.922 91.277 0.936 C.3 1 NIL_1    0.000
85 C_2916 137.174 91.965 3.066 C.3 1 NIL_1    0.000
86 C_2662 150.682 102.914 -1.950 C.2 1 NIL_1    0.000
87 C_2633 150.320 90.352 -1.940 C.2 1 NIL_1    0.000
88 N 150.213 88.860 -0.241 N.am 1 NIL_1    0.000
89 C_2653 136.565 87.862 -5.347 C.2 1 NIL_1    0.000
90 N 151.215 89.352 -2.106 N.am 1 NIL_1    0.000
91 O 150.139 91.273 -2.715 O.2 1 NIL_1    0.000
92 C_2635 151.167 88.449 -1.101 C.2 1 NIL_1    0.000
93 C_2853 149.816 88.214 1.024 C.3 1 NIL_1    0.000
94 C_2667 152.218 89.312 -3.182 C.3 1 NIL_1    0.000
95 O 151.870 87.463 -0.988 O.2 1 NIL_1    0.000
96 C_2857 149.761 86.707 0.955 C.2 1 NIL_1    0.000
97 C_2666 153.517 89.932 -2.702 C.2 1 NIL_1    0.000
98 O 148.904 86.110 0.334 O.2 1 NIL_1    0.000
99 O 150.749 86.139 1.689 O.3 1 NIL_1    0.000
100 C_2656 153.604 91.252 -2.499 C.2 1 NIL_1    0.000
101 C_2665 154.590 89.171 -2.459 C.2 1 NIL_1    0.000
102 C_2889 150.901 84.704 1.899 C.3 1 NIL_1    0.000
103 C_2657 154.738 91.801 -2.061 C.2 1 NIL_1    0.000
104 C_2659 155.727 89.718 -2.024 C.2 1 NIL_1    0.000
105 C_2891 151.108 83.964 0.553 C.3 1 NIL_1    0.000
106 C_2893 149.679 84.151 2.672 C.3 1 NIL_1    0.000
107 C_2897 152.169 84.547 2.769 C.3 1 NIL_1    0.000
108 C_2658 155.801 91.034 -1.824 C.2 1 NIL_1    0.000
109 H_2658 156.724 91.481 -1.465 H 1 NIL_1    0.000
110 H_28971 153.053 84.907 2.236 H 1 NIL_1    0.000
111 H_28972 152.334 83.499 3.034 H 1 NIL_1    0.000
112 H_28973 152.074 85.120 3.695 H 1 NIL_1    0.000
113 H_28931 148.769 84.190 2.071 H 1 NIL_1    0.000
114 H_28932 149.512 84.727 3.584 H 1 NIL_1    0.000
115 H_28933 149.844 83.109 2.954 H 1 NIL_1    0.000
116 H_28911 150.194 83.949 -0.044 H 1 NIL_1    0.000
117 H_28912 151.399 82.926 0.728 H 1 NIL_1    0.000
118 H_28913 151.895 84.443 -0.035 H 1 NIL_1    0.000
119 H_2659 156.594 89.090 -1.830 H 1 NIL_1    0.000
120 H_2657 154.792 92.874 -1.895 H 1 NIL_1    0.000
121 H_2665 154.542 88.096 -2.612 H 1 NIL_1    0.000
122 H_2656 152.746 91.891 -2.685 H 1 NIL_1    0.000
123 H_26671 151.846 89.855 -4.055 H 1 NIL_1    0.000
124 H_26672 152.378 88.271 -3.479 H 1 NIL_1    0.000
125 H_28531 148.815 88.528 1.312 H 1 NIL_1    0.000
126 H_28532 150.518 88.499 1.814 H 1 NIL_1    0.000
127 H_2653 135.775 87.126 -5.477 H 1 NIL_1    0.000
128 H_2662 151.549 103.336 -1.450 H 1 NIL_1    0.000
129 H_29161 138.017 91.713 3.715 H 1 NIL_1    0.000
130 H_29162 136.291 92.091 3.696 H 1 NIL_1    0.000
131 H_29163 137.381 92.925 2.591 H 1 NIL_1    0.000
132 H_29141 135.820 90.502 0.172 H 1 NIL_1    0.000
133 H_29142 136.222 92.204 0.443 H 1 NIL_1    0.000
134 H_29143 134.938 91.445 1.379 H 1 NIL_1    0.000
135 H_29121 137.129 89.256 3.509 H 1 NIL_1    0.000
136 H_29122 136.313 88.751 2.024 H 1 NIL_1    0.000
137 H_29123 135.462 89.757 3.203 H 1 NIL_1    0.000
138 H_2654 135.258 89.489 -5.580 H 1 NIL_1    0.000
139 H_2652 138.054 86.407 -5.083 H 1 NIL_1    0.000
140 H_28851 144.275 103.556 3.342 H 1 NIL_1    0.000
141 H_28852 143.487 104.591 2.141 H 1 NIL_1    0.000
142 H_28853 144.794 105.233 3.135 H 1 NIL_1    0.000
143 H_28831 147.643 103.509 1.503 H 1 NIL_1    0.000
144 H_28832 146.865 103.042 3.024 H 1 NIL_1    0.000
145 H_28833 147.160 104.749 2.665 H 1 NIL_1    0.000
146 H_28811 146.257 104.522 -0.402 H 1 NIL_1    0.000
147 H_28812 145.989 105.859 0.721 H 1 NIL_1    0.000
148 H_28813 144.614 105.094 -0.076 H 1 NIL_1    0.000
149 H_2663 151.438 100.958 -1.860 H 1 NIL_1    0.000
150 H_2661 149.728 104.767 -2.150 H 1 NIL_1    0.000
151 H_26001 147.622 89.206 -0.628 H 1 NIL_1    0.000
152 H_26002 147.792 90.554 -1.750 H 1 NIL_1    0.000
153 H_2655 137.001 91.123 -5.285 H 1 NIL_1    0.000
154 H_2651 139.806 88.039 -4.792 H 1 NIL_1    0.000
155 H_26731 148.023 95.587 -3.495 H 1 NIL_1    0.000
156 H_26732 148.480 93.877 -3.576 H 1 NIL_1    0.000
157 H_26733 149.722 95.125 -3.689 H 1 NIL_1    0.000
158 H_26721 150.638 96.195 -1.617 H 1 NIL_1    0.000
159 H_26722 149.741 96.144 -0.105 H 1 NIL_1    0.000
160 H_26723 149.082 97.003 -1.514 H 1 NIL_1    0.000
161 H_25981 150.286 90.930 1.311 H 1 NIL_1    0.000
162 H_25982 150.785 91.924 -0.077 H 1 NIL_1    0.000
163 H_2664 149.526 100.010 -2.963 H 1 NIL_1    0.000
164 H_2660 147.796 103.823 -3.251 H 1 NIL_1    0.000
165 H_26791 145.641 86.504 1.825 H 1 NIL_1    0.000
166 H_26792 146.269 87.264 0.350 H 1 NIL_1    0.000
167 H_26793 145.497 85.681 0.265 H 1 NIL_1    0.000
168 H_26781 141.981 86.797 0.763 H 1 NIL_1    0.000
169 H_26782 143.029 86.197 2.058 H 1 NIL_1    0.000
170 H_26783 143.035 85.409 0.472 H 1 NIL_1    0.000
171 H_2615 146.735 91.767 -0.070 H 1 NIL_1    0.000
172 H_2671 149.647 93.998 -1.461 H 1 NIL_1    0.000
173 H_2677 143.969 87.491 -0.557 H 1 NIL_1    0.000
174 H_26471 140.416 90.471 -5.527 H 1 NIL_1    0.000
175 H_26472 139.230 91.698 -5.104 H 1 NIL_1    0.000
176 H_26681 146.805 95.193 -1.309 H 1 NIL_1    0.000
177 H_26682 147.251 93.552 -1.410 H 1 NIL_1    0.000
178 H_26491 146.747 102.012 -4.370 H 1 NIL_1    0.000
179 H_26492 147.616 100.481 -4.555 H 1 NIL_1    0.000
180 H_26701 142.913 89.043 1.084 H 1 NIL_1    0.000
181 H_26702 144.017 88.537 2.326 H 1 NIL_1    0.000
182 H_28991 141.064 90.820 0.715 H 1 NIL_1    0.000
183 H_28992 140.016 89.492 0.216 H 1 NIL_1    0.000
184 H_2612 146.690 93.777 0.832 H 1 NIL_1    0.000
185 H_28661 144.177 100.157 0.769 H 1 NIL_1    0.000
186 H_28662 143.070 100.602 -0.549 H 1 NIL_1    0.000
187 H_2618 145.247 89.589 -0.248 H 1 NIL_1    0.000
188 H_26081 142.726 89.687 -0.974 H 1 NIL_1    0.000
189 H_26082 143.736 90.720 -2.013 H 1 NIL_1    0.000
190 H_26011 146.214 99.369 0.998 H 1 NIL_1    0.000
191 H_26012 147.652 99.287 -0.040 H 1 NIL_1    0.000
192 H_26101 140.938 93.381 -1.109 H 1 NIL_1    0.000
193 H_26102 142.287 93.476 -2.239 H 1 NIL_1    0.000
194 H_2620 147.161 97.055 -0.667 H 1 NIL_1    0.000
195 H_25401 143.763 98.326 -1.121 H 1 NIL_1    0.000
196 H_25402 144.900 97.474 -2.198 H 1 NIL_1    0.000
197 H_2625 143.797 93.461 -0.569 H 1 NIL_1    0.000
198 H_2623 143.385 95.348 -0.710 H 1 NIL_1    0.000
199 H_26751 139.733 96.780 1.487 H 1 NIL_1    0.000
200 H_26752 140.201 98.218 2.407 H 1 NIL_1    0.000
201 H_26753 141.194 96.768 2.484 H 1 NIL_1    0.000
202 H_26691 140.973 96.086 -0.528 H 1 NIL_1    0.000
203 H_26692 142.096 97.135 -1.313 H 1 NIL_1    0.000
204 H_2674 142.279 98.426 0.968 H 1 NIL_1    0.000
205 H_26761 139.604 98.452 -0.513 H 1 NIL_1    0.000
206 H_26762 141.081 99.254 -1.073 H 1 NIL_1    0.000
207 H_26763 140.318 99.777 0.428 H 1 NIL_1    0.000
208 HH 146.012 89.188 2.510 H 1 NIL_1    0.000
209 HH 148.068 95.273 2.354 H 1 NIL_1    0.000
210 HH 142.202 95.277 2.031 H 1 NIL_1    0.000
@<TRIPOS>BOND
1 1 2 1 
2 1 205 1 
3 1 206 1 
4 1 207 1 
5 2 3 1 
6 2 204 1 
7 3 5 1 
8 3 202 1 
9 3 203 1 
10 4 2 1 
11 4 199 1 
12 4 200 1 
13 4 201 1 
14 5 6 1 
15 5 198 1 
16 6 210 1 
17 7 10 1 
18 7 5 1 
19 8 11 1 
20 8 12 2 
21 8 6 1 
22 9 7 2 
23 10 13 1 
24 11 15 1 
25 11 16 1 
26 11 197 1 
27 13 195 1 
28 13 196 1 
29 14 19 1 
30 14 10 1 
31 14 194 1 
32 15 20 1 
33 15 192 1 
34 15 193 1 
35 17 13 1 
36 18 14 1 
37 18 25 2 
38 18 26 1 
39 19 17 1 
40 19 190 1 
41 19 191 1 
42 21 16 1 
43 21 20 1 
44 21 188 1 
45 21 189 1 
46 22 30 1 
47 22 16 1 
48 23 17 1 
49 24 33 1 
50 24 17 1 
51 26 209 1 
52 27 20 1 
53 28 38 1 
54 28 20 1 
55 28 39 1 
56 29 22 2 
57 30 40 1 
58 30 187 1 
59 31 23 1 
60 32 23 2 
61 33 31 1 
62 34 24 1 
63 34 185 1 
64 34 186 1 
65 35 26 1 
66 35 184 1 
67 36 27 1 
68 37 27 2 
69 38 36 1 
70 39 182 1 
71 39 183 1 
72 40 208 1 
73 41 30 1 
74 41 180 1 
75 41 181 1 
76 42 31 1 
77 42 178 1 
78 42 179 1 
79 43 33 2 
80 44 34 1 
81 45 35 1 
82 46 35 1 
83 46 57 1 
84 46 176 1 
85 46 177 1 
86 47 36 1 
87 47 174 1 
88 47 175 1 
89 48 38 2 
90 49 39 1 
91 50 61 1 
92 50 62 2 
93 50 40 1 
94 51 41 1 
95 51 173 1 
96 52 42 1 
97 53 44 1 
98 54 44 2 
99 55 45 2 
100 56 68 1 
101 56 45 1 
102 56 61 1 
103 57 172 1 
104 58 47 1 
105 59 49 2 
106 60 49 1 
107 61 74 1 
108 61 171 1 
109 63 51 1 
110 63 168 1 
111 63 169 1 
112 63 170 1 
113 64 51 1 
114 64 165 1 
115 64 166 1 
116 64 167 1 
117 65 52 2 
118 65 164 1 
119 66 76 2 
120 66 52 1 
121 66 163 1 
122 67 53 1 
123 68 80 1 
124 68 161 1 
125 68 162 1 
126 69 57 1 
127 69 158 1 
128 69 159 1 
129 69 160 1 
130 70 57 1 
131 70 155 1 
132 70 156 1 
133 70 157 1 
134 71 58 2 
135 71 154 1 
136 72 82 2 
137 72 58 1 
138 72 153 1 
139 73 60 1 
140 74 80 1 
141 74 151 1 
142 74 152 1 
143 75 65 1 
144 75 150 1 
145 76 86 1 
146 76 149 1 
147 77 67 1 
148 77 146 1 
149 77 147 1 
150 77 148 1 
151 78 67 1 
152 78 143 1 
153 78 144 1 
154 78 145 1 
155 79 67 1 
156 79 140 1 
157 79 141 1 
158 79 142 1 
159 80 87 1 
160 80 88 1 
161 81 71 1 
162 81 139 1 
163 82 89 1 
164 82 138 1 
165 83 73 1 
166 83 135 1 
167 83 136 1 
168 83 137 1 
169 84 73 1 
170 84 132 1 
171 84 133 1 
172 84 134 1 
173 85 73 1 
174 85 129 1 
175 85 130 1 
176 85 131 1 
177 86 75 2 
178 86 128 1 
179 88 92 1 
180 89 81 2 
181 89 127 1 
182 90 87 1 
183 91 87 2 
184 92 90 1 
185 93 88 1 
186 93 125 1 
187 93 126 1 
188 94 90 1 
189 94 123 1 
190 94 124 1 
191 95 92 2 
192 96 93 1 
193 97 100 1 
194 97 94 1 
195 98 96 2 
196 99 96 1 
197 100 122 1 
198 101 104 1 
199 101 97 2 
200 101 121 1 
201 102 99 1 
202 102 107 1 
203 103 100 2 
204 103 120 1 
205 104 108 2 
206 104 119 1 
207 105 102 1 
208 105 116 1 
209 105 117 1 
210 105 118 1 
211 106 102 1 
212 106 113 1 
213 106 114 1 
214 106 115 1 
215 108 103 1 
216 108 109 1 
217 110 107 1 
218 111 107 1 
219 112 107 1 
@<TRIPOS>SUBSTRUCTURE
1 NIL_1 1 RESIDUE 1 A NIL 1
