@<TRIPOS>MOLECULE
NIL
151 160 1 0 0
POLYMER
CHARGES


@<TRIPOS>ATOM
1 O 121.674 92.4125 -0.576893 O.3 1 NIL_1    0.000
2 C_2240 121.631 91.062 -0.788 C.2 1 NIL_1    0.000
3 C_2261 120.819 92.944 0.464 C.3 1 NIL_1    0.000
4 C_2238 122.781 90.386 -0.846 C.2 1 NIL_1    0.000
5 C_2242 120.483 90.402 -0.978 C.2 1 NIL_1    0.000
6 C_2236 122.785 89.074 -1.086 C.2 1 NIL_1    0.000
7 C_2244 120.490 89.089 -1.217 C.2 1 NIL_1    0.000
8 C_2015 121.640 88.411 -1.275 C.2 1 NIL_1    0.000
9 C_2014 121.650 86.923 -1.583 C.3 1 NIL_1    0.000
10 N 121.484 85.930 -0.499 N.am 1 NIL_1    0.000
11 C_2000 121.228 84.623 -0.751 C.2 1 NIL_1    0.000
12 C_2002 121.631 86.163 0.831 C.2 1 NIL_1    0.000
13 C_1963 121.224 83.875 0.563 C.3 1 NIL_1    0.000
14 O 121.053 84.138 -1.852 O.2 1 NIL_1    0.000
15 NH 121.464 84.989 1.463 N.am 1 NIL_1    0.000
16 O 121.871 87.219 1.381 O.2 1 NIL_1    0.000
17 C_1962 119.912 83.116 0.808 C.3 1 NIL_1    0.000
18 C_1964 122.295 82.782 0.597 C.3 1 NIL_1    0.000
19 N 120.107 81.765 0.265 N.am 1 NIL_1    0.000
20 C_1983 121.562 81.518 0.101 C.3 1 NIL_1    0.000
21 C_1987 119.082 80.913 -0.024 C.2 1 NIL_1    0.000
22 C_1984 122.078 80.308 0.879 C.2 1 NIL_1    0.000
23 O 117.952 81.161 0.346 O.2 1 NIL_1    0.000
24 C_1986 119.406 79.679 -0.861 C.3 1 NIL_1    0.000
25 O 121.515 79.964 1.904 O.2 1 NIL_1    0.000
26 N 123.169 79.629 0.405 N.am 1 NIL_1    0.000
27 N 118.334 78.661 -0.999 N.am 1 NIL_1    0.000
28 C_1975 123.482 78.281 0.930 C.3 1 NIL_1    0.000
29 C_2017 123.847 79.967 -0.880 C.3 1 NIL_1    0.000
30 C_1989 118.506 77.393 -0.514 C.2 1 NIL_1    0.000
31 C_2018 117.246 79.080 -1.913 C.3 1 NIL_1    0.000
32 C_1976 122.899 77.191 0.040 C.2 1 NIL_1    0.000
33 C_2022 125.265 79.392 -1.163 C.3 1 NIL_1    0.000
34 C_1988 117.674 76.237 -1.076 C.3 1 NIL_1    0.000
35 O 119.306 77.175 0.377 O.2 1 NIL_1    0.000
36 C_2025 115.920 79.355 -1.171 C.3 1 NIL_1    0.000
37 O 121.950 77.408 -0.686 O.2 1 NIL_1    0.000
38 N 123.449 75.957 0.087 N.am 1 NIL_1    0.000
39 O 125.416 79.104 -2.573 O.3 1 NIL_1    0.000
40 C_1973 116.393 76.010 -0.243 C.3 1 NIL_1    0.000
41 N 118.424 74.961 -1.077 N.am 1 NIL_1    0.000
42 O 114.824 78.818 -1.943 O.3 1 NIL_1    0.000
43 C_1959 124.749 75.599 0.670 C.3 1 NIL_1    0.000
44 C_1978 122.847 74.777 -0.551 C.3 1 NIL_1    0.000
45 C_2024 124.770 77.893 -3.036 C.3 1 NIL_1    0.000
46 C_1972 116.238 74.485 -0.183 C.3 1 NIL_1    0.000
47 C_1971 117.673 73.959 -0.306 C.3 1 NIL_1    0.000
48 C_1990 119.593 74.755 -1.748 C.2 1 NIL_1    0.000
49 C_2027 113.532 78.889 -1.301 C.3 1 NIL_1    0.000
50 C_1960 125.111 74.201 0.130 C.3 1 NIL_1    0.000
51 C_1979 121.882 74.058 0.392 C.2 1 NIL_1    0.000
52 C_1961 124.024 73.854 -0.905 C.3 1 NIL_1    0.000
53 C_1992 115.356 73.945 -1.287 C.2 1 NIL_1    0.000
54 NH 115.500 73.988 0.967 N.am 1 NIL_1    0.000
55 O 120.041 75.607 -2.492 O.2 1 NIL_1    0.000
56 C_1981 120.356 73.451 -1.525 C.3 1 NIL_1    0.000
57 C_1996 126.505 74.159 -0.453 C.2 1 NIL_1    0.000
58 NH 125.264 73.197 1.173 N.am 1 NIL_1    0.000
59 O 122.054 74.083 1.597 O.2 1 NIL_1    0.000
60 N 120.891 73.297 -0.153 N.am 1 NIL_1    0.000
61 N 114.337 73.252 -0.721 N.am 1 NIL_1    0.000
62 O 115.524 74.098 -2.482 O.2 1 NIL_1    0.000
63 C_1994 114.406 73.281 0.635 C.2 1 NIL_1    0.000
64 N 127.223 73.238 0.231 N.am 1 NIL_1    0.000
65 O 126.922 74.837 -1.372 O.2 1 NIL_1    0.000
66 C_1998 126.492 72.651 1.208 C.2 1 NIL_1    0.000
67 C_2016 120.336 72.138 0.572 C.3 1 NIL_1    0.000
68 C_2012 113.296 72.583 -1.529 C.3 1 NIL_1    0.000
69 O 113.637 72.782 1.433 O.2 1 NIL_1    0.000
70 C_2010 128.633 72.928 -0.053 C.3 1 NIL_1    0.000
71 O 126.864 71.794 1.984 O.2 1 NIL_1    0.000
72 C_2019 121.192 70.884 0.324 C.3 1 NIL_1    0.000
73 C_2013 112.308 71.650 -0.860 C.2 1 NIL_1    0.000
74 C_2011 128.813 72.072 -1.296 C.3 1 NIL_1    0.000
75 O 120.601 69.766 1.020 O.3 1 NIL_1    0.000
76 C_2220 112.615 70.367 -0.634 C.2 1 NIL_1    0.000
77 C_2228 111.104 72.101 -0.492 C.2 1 NIL_1    0.000
78 C_2252 128.615 70.586 -1.232 C.3 1 NIL_1    0.000
79 C_2254 129.991 71.149 -1.417 C.3 1 NIL_1    0.000
80 C_2021 121.343 68.533 0.918 C.3 1 NIL_1    0.000
81 C_2222 111.735 69.550 -0.053 C.2 1 NIL_1    0.000
82 C_2226 110.226 71.289 0.097 C.2 1 NIL_1    0.000
83 C_2224 110.538 70.012 0.311 C.2 1 NIL_1    0.000
84 H_2224 109.818 69.349 0.781 H 1 NIL_1    0.000
85 H_2226 109.255 71.672 0.398 H 1 NIL_1    0.000
86 H_2222 111.989 68.506 0.116 H 1 NIL_1    0.000
87 H_20211 122.318 68.658 1.396 H 1 NIL_1    0.000
88 H_20212 121.476 68.272 -0.135 H 1 NIL_1    0.000
89 H_20213 120.785 67.741 1.424 H 1 NIL_1    0.000
90 H_22541 130.681 71.087 -0.581 H 1 NIL_1    0.000
91 H_22542 130.454 71.045 -2.394 H 1 NIL_1    0.000
92 H_22521 128.147 70.101 -2.084 H 1 NIL_1    0.000
93 H_22522 128.374 70.143 -0.270 H 1 NIL_1    0.000
94 H_2228 110.832 73.141 -0.667 H 1 NIL_1    0.000
95 H_2220 113.585 69.977 -0.928 H 1 NIL_1    0.000
96 H_2011 128.495 72.570 -2.208 H 1 NIL_1    0.000
97 H_20191 121.223 70.660 -0.746 H 1 NIL_1    0.000
98 H_20192 122.209 71.043 0.694 H 1 NIL_1    0.000
99 H_20101 129.077 72.421 0.808 H 1 NIL_1    0.000
100 H_20102 129.176 73.864 -0.218 H 1 NIL_1    0.000
101 H_20121 113.810 72.013 -2.307 H 1 NIL_1    0.000
102 H_20122 112.730 73.371 -2.034 H 1 NIL_1    0.000
103 H_20161 119.319 71.936 0.238 H 1 NIL_1    0.000
104 H_20162 120.299 72.351 1.643 H 1 NIL_1    0.000
105 H_19811 119.670 72.635 -1.760 H 1 NIL_1    0.000
106 H_19812 121.177 73.412 -2.245 H 1 NIL_1    0.000
107 H_19611 123.746 72.797 -0.888 H 1 NIL_1    0.000
108 H_19612 124.368 74.099 -1.913 H 1 NIL_1    0.000
109 H_20271 112.781 78.459 -1.969 H 1 NIL_1    0.000
110 H_20272 113.283 79.933 -1.093 H 1 NIL_1    0.000
111 H_20273 113.556 78.320 -0.366 H 1 NIL_1    0.000
112 H_19711 118.121 73.878 0.687 H 1 NIL_1    0.000
113 H_19712 117.684 72.986 -0.805 H 1 NIL_1    0.000
114 H_20241 123.685 78.013 -2.982 H 1 NIL_1    0.000
115 H_20242 125.082 77.053 -2.409 H 1 NIL_1    0.000
116 H_20243 125.065 77.712 -4.073 H 1 NIL_1    0.000
117 H_1978 122.331 75.076 -1.463 H 1 NIL_1    0.000
118 H_19591 124.675 75.597 1.761 H 1 NIL_1    0.000
119 H_19592 125.498 76.332 0.360 H 1 NIL_1    0.000
120 H_19731 116.528 76.400 0.771 H 1 NIL_1    0.000
121 H_19732 115.520 76.490 -0.688 H 1 NIL_1    0.000
122 H_20251 115.926 78.872 -0.190 H 1 NIL_1    0.000
123 H_20252 115.777 80.431 -1.042 H 1 NIL_1    0.000
124 H_1988 117.410 76.441 -2.115 H 1 NIL_1    0.000
125 H_20221 126.011 80.138 -0.875 H 1 NIL_1    0.000
126 H_20222 125.483 78.464 -0.637 H 1 NIL_1    0.000
127 H_20181 117.095 78.327 -2.688 H 1 NIL_1    0.000
128 H_20182 117.537 79.998 -2.432 H 1 NIL_1    0.000
129 H_20171 123.953 81.052 -0.938 H 1 NIL_1    0.000
130 H_20172 123.172 79.671 -1.687 H 1 NIL_1    0.000
131 H_19751 123.038 78.136 1.918 H 1 NIL_1    0.000
132 H_19752 124.557 78.156 1.059 H 1 NIL_1    0.000
133 H_19861 119.682 80.035 -1.857 H 1 NIL_1    0.000
134 H_19862 120.289 79.209 -0.437 H 1 NIL_1    0.000
135 H_1983 121.746 81.378 -0.967 H 1 NIL_1    0.000
136 H_19641 122.630 82.641 1.628 H 1 NIL_1    0.000
137 H_19642 123.165 83.028 -0.015 H 1 NIL_1    0.000
138 H_19621 119.721 83.031 1.882 H 1 NIL_1    0.000
139 H_19622 119.070 83.614 0.320 H 1 NIL_1    0.000
140 H_20141 120.857 86.734 -2.313 H 1 NIL_1    0.000
141 H_20142 122.593 86.686 -2.085 H 1 NIL_1    0.000
142 H_2244 119.547 88.573 -1.380 H 1 NIL_1    0.000
143 H_2236 123.734 88.546 -1.135 H 1 NIL_1    0.000
144 H_2242 119.532 90.928 -0.958 H 1 NIL_1    0.000
145 H_2238 123.724 90.908 -0.702 H 1 NIL_1    0.000
146 H_22611 121.094 92.496 1.423 H 1 NIL_1    0.000
147 H_22612 119.771 92.736 0.238 H 1 NIL_1    0.000
148 H_22613 120.963 94.026 0.514 H 1 NIL_1    0.000
149 HH 124.514 72.942 1.796 H 1 NIL_1    0.000
150 HH 115.791 74.162 1.915 H 1 NIL_1    0.000
151 HH 121.532 84.874 2.463 H 1 NIL_1    0.000
@<TRIPOS>BOND
1 1 2 1 
2 2 4 2 
3 3 1 1 
4 3 146 1 
5 3 147 1 
6 3 148 1 
7 4 6 1 
8 4 145 1 
9 5 2 1 
10 5 144 1 
11 6 143 1 
12 7 5 2 
13 7 8 1 
14 7 142 1 
15 8 9 1 
16 8 6 2 
17 9 10 1 
18 9 140 1 
19 9 141 1 
20 10 11 1 
21 11 13 1 
22 12 10 1 
23 13 17 1 
24 14 11 2 
25 15 12 1 
26 15 13 1 
27 15 151 1 
28 16 12 2 
29 17 138 1 
30 17 139 1 
31 18 13 1 
32 18 20 1 
33 18 136 1 
34 18 137 1 
35 19 17 1 
36 19 20 1 
37 20 135 1 
38 21 19 1 
39 22 20 1 
40 23 21 2 
41 24 27 1 
42 24 21 1 
43 24 133 1 
44 24 134 1 
45 25 22 2 
46 26 22 1 
47 27 30 1 
48 28 26 1 
49 28 32 1 
50 28 131 1 
51 28 132 1 
52 29 26 1 
53 29 33 1 
54 29 129 1 
55 29 130 1 
56 30 34 1 
57 31 27 1 
58 31 127 1 
59 31 128 1 
60 32 38 1 
61 33 125 1 
62 33 126 1 
63 34 124 1 
64 35 30 2 
65 36 31 1 
66 36 122 1 
67 36 123 1 
68 37 32 2 
69 38 43 1 
70 38 44 1 
71 39 33 1 
72 40 46 1 
73 40 34 1 
74 40 120 1 
75 40 121 1 
76 41 47 1 
77 41 34 1 
78 41 48 1 
79 42 36 1 
80 43 118 1 
81 43 119 1 
82 44 117 1 
83 45 39 1 
84 45 114 1 
85 45 115 1 
86 45 116 1 
87 46 47 1 
88 47 112 1 
89 47 113 1 
90 49 42 1 
91 49 109 1 
92 49 110 1 
93 49 111 1 
94 50 43 1 
95 51 44 1 
96 52 50 1 
97 52 44 1 
98 52 107 1 
99 52 108 1 
100 53 46 1 
101 54 63 1 
102 54 46 1 
103 54 150 1 
104 55 48 2 
105 56 60 1 
106 56 48 1 
107 56 105 1 
108 56 106 1 
109 57 50 1 
110 58 66 1 
111 58 50 1 
112 58 149 1 
113 59 51 2 
114 60 51 1 
115 61 53 1 
116 62 53 2 
117 63 61 1 
118 64 57 1 
119 65 57 2 
120 66 64 1 
121 67 60 1 
122 67 72 1 
123 67 103 1 
124 67 104 1 
125 68 61 1 
126 68 101 1 
127 68 102 1 
128 69 63 2 
129 70 64 1 
130 70 100 1 
131 71 66 2 
132 73 68 1 
133 73 76 2 
134 73 77 1 
135 74 70 1 
136 75 72 1 
137 77 82 2 
138 78 74 1 
139 79 78 1 
140 79 74 1 
141 80 75 1 
142 81 76 1 
143 82 83 1 
144 83 81 2 
145 84 83 1 
146 85 82 1 
147 86 81 1 
148 87 80 1 
149 88 80 1 
150 89 80 1 
151 90 79 1 
152 91 79 1 
153 92 78 1 
154 93 78 1 
155 94 77 1 
156 95 76 1 
157 96 74 1 
158 97 72 1 
159 98 72 1 
160 99 70 1 
@<TRIPOS>SUBSTRUCTURE
1 NIL_1 1 RESIDUE 1 A NIL 1
