@<TRIPOS>MOLECULE
epr.pdb
   52    54     1     0     0
SMALL
bcc


@<TRIPOS>ATOM
      1 C17       115.9320   78.0920    0.0820 c3        1 UNK      0.074300
      2 N3        115.1880   79.3230   -0.3000 n         1 UNK     -0.475800
      3 C         114.2520   79.8640    0.5370 c         1 UNK      0.631100
      4 C18       115.4290   79.8040   -1.6910 c3        1 UNK      0.079300
      5 C1        113.2750   80.9040   -0.0160 c3        1 UNK      0.040700
      6 O         114.1620   79.5100    1.6990 o         1 UNK     -0.608100
      7 C2        113.6970   82.3220    0.4230 c3        1 UNK     -0.076400
      8 N         111.8790   80.7000    0.4290 n         1 UNK     -0.464800
      9 C16       111.7420   78.4190   -0.4990 c3        1 UNK     -0.171100
     10 C3        112.3680   83.0570    0.6310 c3        1 UNK      0.002400
     11 C4        111.3730   81.9500    1.0130 c3        1 UNK      0.079000
     12 C15       111.1230   79.5760    0.2770 c         1 UNK      0.671100
     13 C5        111.9310   83.8090   -0.6050 c         1 UNK      0.705500
     14 N1        112.4180   84.1630    1.5700 n         1 UNK     -0.538900
     15 O4        109.9950   79.5140    0.7280 o         1 UNK     -0.585100
     16 N2        111.7870   85.1170   -0.2820 n         1 UNK     -0.504400
     17 O1        111.7280   83.3300   -1.7050 o         1 UNK     -0.581500
     18 C6        112.0610   85.3400    1.0300 c         1 UNK      0.794500
     19 C7        111.3180   86.1220   -1.2590 c3        1 UNK      0.160300
     20 O3        111.9970   86.3880    1.6400 o         1 UNK     -0.605500
     21 C8        111.4600   87.5910   -0.9110 ca        1 UNK     -0.167300
     22 C9        112.6120   88.2360   -1.1140 ca        1 UNK     -0.075000
     23 C13       110.4330   88.2630   -0.3830 ca        1 UNK     -0.074000
     24 C10       112.7380   89.5260   -0.7950 ca        1 UNK     -0.211000
     25 C12       110.5570   89.5510   -0.0600 ca        1 UNK     -0.163000
     26 C11       111.7080   90.1990   -0.2610 ca        1 UNK      0.134100
     27 O2        111.7600   91.5240    0.1010 os        1 UNK     -0.326900
     28 C14       112.8860   92.3350   -0.3140 c3        1 UNK      0.113700
     29 H141      113.8050   91.9500    0.1340 h1        1 UNK      0.032700
     30 H142      112.7220   93.3600    0.0270 h1        1 UNK      0.067700
     31 H143      112.9620   92.3200   -1.4050 h1        1 UNK      0.034700
     32 H121      109.7070   90.0760    0.3720 ha        1 UNK      0.152000
     33 H101      113.6970   90.0060   -0.9750 ha        1 UNK      0.139000
     34 H131      109.4870   87.7580   -0.2070 ha        1 UNK      0.147000
     35 H91       113.4630   87.7100   -1.5400 ha        1 UNK      0.149000
     36 H71       110.2620   85.9120   -1.4530 h1        1 UNK      0.083700
     37 H72       111.8520   85.9440   -2.1970 h1        1 UNK      0.071700
     38 H41       111.3410   81.8380    2.1000 h1        1 UNK      0.083700
     39 H42       110.3720   82.1790    0.6380 h1        1 UNK      0.081700
     40 H163      112.0440   78.8080   -1.4740 hc        1 UNK      0.059700
     41 H162      112.6430   78.0990    0.0220 hc        1 UNK      0.068700
     42 H21       114.2440   82.2810    1.3700 hc        1 UNK      0.086700
     43 H22       114.3340   82.8080   -0.3190 hc        1 UNK      0.085700
     44 H1        113.2450   80.8540   -1.1060 h1        1 UNK      0.080700
     45 H183      115.1790   80.8660   -1.7570 h1        1 UNK      0.036700
     46 H181      114.7380   79.2670   -2.3450 h1        1 UNK      0.032700
     47 H171      115.7650   77.8470    1.1330 h1        1 UNK      0.083700
     48 H173      117.0000   78.2720   -0.0330 h1        1 UNK      0.034700
     49 HN1       112.6610   84.0390    2.5420 hn        1 UNK      0.357500
     50 H172      115.6240   77.2580   -0.5490 h1        1 UNK      0.034700
     51 H182      116.4630   79.6290   -1.9900 h1        1 UNK      0.057700
     52 H161      111.0360   77.5950   -0.6060 hc        1 UNK      0.081700
@<TRIPOS>BOND
     1    1    2 1   
     2    3    5 1   
     3    3    6 2   
     4    3    2 1   
     5    4    2 1   
     6    5    7 1   
     7    5   44 1   
     8    7   10 1   
     9    8   11 1   
    10    8   12 1   
    11    8    5 1   
    12    9   12 1   
    13   11   10 1   
    14   11   38 1   
    15   11   39 1   
    16   13   10 1   
    17   14   18 1   
    18   14   10 1   
    19   15   12 2   
    20   16   13 1   
    21   17   13 2   
    22   18   16 1   
    23   19   16 1   
    24   20   18 2   
    25   21   19 1   
    26   22   21 ar  
    27   23   25 ar  
    28   23   21 ar  
    29   24   22 ar  
    30   25   26 ar  
    31   26   24 ar  
    32   27   26 1   
    33   28   27 1   
    34   29   28 1   
    35   30   28 1   
    36   31   28 1   
    37   32   25 1   
    38   33   24 1   
    39   34   23 1   
    40   35   22 1   
    41   36   19 1   
    42   37   19 1   
    43   40    9 1   
    44   41    9 1   
    45   42    7 1   
    46   43    7 1   
    47   45    4 1   
    48   46    4 1   
    49   47    1 1   
    50   48    1 1   
    51   49   14 1   
    52   50    1 1   
    53   51    4 1   
    54   52    9 1   
@<TRIPOS>SUBSTRUCTURE
     1 UNK         1 TEMP              0 ****  ****    0 ROOT
