@<TRIPOS>MOLECULE
NIL
52 54 1 0 0
POLYMER
CHARGES


@<TRIPOS>ATOM
      1 C17       115.9320   78.0920    0.0820 C.3       1 NIL    0.0000
      2 N         115.1880   79.3230   -0.3000 N.am      1 NIL    0.0000
      3 C5        114.2520   79.8640    0.5370 C.2       1 NIL    0.0000
      4 C18       115.4290   79.8040   -1.6910 C.3       1 NIL    0.0000
      5 C1        113.2750   80.9040   -0.0160 C.3       1 NIL    0.0000
      6 O         114.1620   79.5100    1.6990 O.2       1 NIL    0.0000
      7 C2        113.6970   82.3220    0.4230 C.3       1 NIL    0.0000
      8 N3        111.8790   80.7000    0.4290 N.am      1 NIL    0.0000
      9 C16       111.7420   78.4190   -0.4990 C.3       1 NIL    0.0000
     10 C3        112.3680   83.0570    0.6310 C.3       1 NIL    0.0000
     11 C4        111.3730   81.9500    1.0130 C.3       1 NIL    0.0000
     12 C15       111.1230   79.5760    0.2770 C.2       1 NIL    0.0000
     13 C         111.9310   83.8090   -0.6050 C.2       1 NIL    0.0000
     14 N1        112.4180   84.1630    1.5700 N.am      1 NIL    0.0000
     15 O4        109.9950   79.5140    0.7280 O.2       1 NIL    0.0000
     16 N2        111.7870   85.1170   -0.2820 N.am      1 NIL    0.0000
     17 O1        111.7280   83.3300   -1.7050 O.2       1 NIL    0.0000
     18 C6        112.0610   85.3400    1.0300 C.2       1 NIL    0.0000
     19 C7        111.3180   86.1220   -1.2590 C.3       1 NIL    0.0000
     20 O3        111.9970   86.3880    1.6400 O.2       1 NIL    0.0000
     21 C8        111.4600   87.5910   -0.9110 C.2       1 NIL    0.0000
     22 C9        112.6120   88.2360   -1.1140 C.2       1 NIL    0.0000
     23 C13       110.4330   88.2630   -0.3830 C.2       1 NIL    0.0000
     24 C10       112.7380   89.5260   -0.7950 C.2       1 NIL    0.0000
     25 C12       110.5570   89.5510   -0.0600 C.2       1 NIL    0.0000
     26 C11       111.7080   90.1990   -0.2610 C.2       1 NIL    0.0000
     27 O3        111.7600   91.5240    0.1010 O.3       1 NIL    0.0000
     28 C14       112.8860   92.3350   -0.3140 C.3       1 NIL    0.0000
     29 H1C14     113.8050   91.9500    0.1340 H         1 NIL    0.0000
     30 H2C14     112.7220   93.3600    0.0270 H         1 NIL    0.0000
     31 H3C14     112.9620   92.3200   -1.4050 H         1 NIL    0.0000
     32 H1C12     109.7070   90.0760    0.3720 H         1 NIL    0.0000
     33 H1C10     113.6970   90.0060   -0.9750 H         1 NIL    0.0000
     34 H1C13     109.4870   87.7580   -0.2070 H         1 NIL    0.0000
     35 H1C9      113.4630   87.7100   -1.5400 H         1 NIL    0.0000
     36 H1C7      110.2620   85.9120   -1.4530 H         1 NIL    0.0000
     37 H2C7      111.8520   85.9440   -2.1970 H         1 NIL    0.0000
     38 H1C4      111.3410   81.8380    2.1000 H         1 NIL    0.0000
     39 H2C4      110.3720   82.1790    0.6380 H         1 NIL    0.0000
     40 H3C17     112.0440   78.8080   -1.4740 H         1 NIL    0.0000
     41 H2C16     112.6430   78.0990    0.0220 H         1 NIL    0.0000
     42 H1C2      114.2440   82.2810    1.3700 H         1 NIL    0.0000
     43 H2C2      114.3340   82.8080   -0.3190 H         1 NIL    0.0000
     44 HC1       113.2450   80.8540   -1.1060 H         1 NIL    0.0000
     45 H3C18     115.1790   80.8660   -1.7570 H         1 NIL    0.0000
     46 H1C18     114.7380   79.2670   -2.3450 H         1 NIL    0.0000
     47 H1C17     115.7650   77.8470    1.1330 H         1 NIL    0.0000
     48 H3C17     117.0000   78.2720   -0.0330 H         1 NIL    0.0000
     49 HN1       112.6610   84.0390    2.5420 H         1 NIL    0.0000
     50 H2C18     115.6238   77.2585   -0.5492 H         1 NIL    0.0000
     51 H2C19     116.4626   79.6286   -1.9895 H         1 NIL    0.0000
     52 H1C16     111.0362   77.5952   -0.6059 H         1 NIL    0.0000
@<TRIPOS>BOND
     1    1    2 1
     2    3    5 1
     3    3    6 2
     4    3    2 1
     5    4    2 1
     6    5    7 1
     7    5   44 1
     8    7   10 1
     9    8   11 1
    10    8   12 1
    11    8    5 1
    12    9   12 1
    13   11   10 1
    14   11   38 1
    15   11   39 1
    16   13   10 1
    17   14   18 1
    18   14   10 1
    19   15   12 2
    20   16   13 1
    21   17   13 2
    22   18   16 1
    23   19   16 1
    24   20   18 2
    25   21   19 1
    26   22   21 2
    27   23   25 2
    28   23   21 1
    29   24   22 1
    30   25   26 1
    31   26   24 2
    32   27   26 1
    33   28   27 1
    34   29   28 1
    35   30   28 1
    36   31   28 1
    37   32   25 1
    38   33   24 1
    39   34   23 1
    40   35   22 1
    41   36   19 1
    42   37   19 1
    43   40    9 1
    44   41    9 1
    45   42    7 1
    46   43    7 1
    47   45    4 1
    48   46    4 1
    49   47    1 1
    50   48    1 1
    51   49   14 1
    52   50    1 1
    53   51    4 1
    54   52    9 1
@<TRIPOS>SUBSTRUCTURE
     1 NIL     1 RESIDUE           4 A     NIL     0 ROOT
