@<TRIPOS>MOLECULE
NIL
156 165 1 0 0
POLYMER
CHARGES


@<TRIPOS>ATOM
1 C_2345 120.104 70.0663 -0.562944 C.2 1 NIL_1    0.000
2 O 119.324 70.288 0.340 O.2 1 NIL_1    0.000
3 NH 121.412 70.370 -0.559 N.am 1 NIL_1    0.000
4 N 119.833 69.467 -1.748 N.am 1 NIL_1    0.000
5 AQ 122.100 69.956 -1.773 C.3 1 NIL_1    0.000
6 C_2609 118.510 68.926 -2.106 C.3 1 NIL_1    0.000
7 C_2343 120.931 69.386 -2.538 C.2 1 NIL_1    0.000
8 C_2308 123.215 68.947 -1.508 C.3 1 NIL_1    0.000
9 C_2306 122.823 71.105 -2.470 C.3 1 NIL_1    0.000
10 C_2608 118.052 67.809 -1.183 C.2 1 NIL_1    0.000
11 O 120.964 68.923 -3.662 O.2 1 NIL_1    0.000
12 AP 124.473 69.816 -1.272 C.3 1 NIL_1    0.000
13 N 124.189 71.128 -1.923 N.am 1 NIL_1    0.000
14 C_2607 116.837 67.857 -0.622 C.2 1 NIL_1    0.000
15 C_2598 118.845 66.766 -0.914 C.2 1 NIL_1    0.000
16 C_2326 125.737 69.119 -1.781 C.2 1 NIL_1    0.000
17 C_2323 124.979 72.235 -2.051 C.2 1 NIL_1    0.000
18 C_2601 116.424 66.883 0.190 C.2 1 NIL_1    0.000
19 C_2599 118.435 65.791 -0.100 C.2 1 NIL_1    0.000
20 N 126.305 68.125 -1.031 N.am 1 NIL_1    0.000
21 O 126.244 69.455 -2.836 O.2 1 NIL_1    0.000
22 C_2322 126.336 72.348 -1.360 C.3 1 NIL_1    0.000
23 O 124.593 73.179 -2.716 O.2 1 NIL_1    0.000
24 C_2600 117.223 65.848 0.452 C.2 1 NIL_1    0.000
25 C_2581 125.641 67.345 0.041 C.3 1 NIL_1    0.000
26 C_2328 127.700 67.702 -1.281 C.3 1 NIL_1    0.000
27 N 126.430 72.623 0.101 N.am 1 NIL_1    0.000
28 C_2584 125.761 67.951 1.463 C.3 1 NIL_1    0.000
29 C_2337 128.706 68.665 -0.664 C.2 1 NIL_1    0.000
30 C_2582 125.077 72.843 0.708 C.3 1 NIL_1    0.000
31 C_2331 127.630 72.701 0.781 C.2 1 NIL_1    0.000
32 C_2585 126.899 67.271 2.255 C.3 1 NIL_1    0.000
33 C_2729 124.437 67.792 2.242 C.3 1 NIL_1    0.000
34 N 129.995 68.626 -1.107 N.am 1 NIL_1    0.000
35 O 128.366 69.450 0.202 O.2 1 NIL_1    0.000
36 C_2587 124.876 73.027 2.236 C.3 1 NIL_1    0.000
37 O 127.676 72.443 1.965 O.2 1 NIL_1    0.000
38 CP 128.978 73.111 0.131 C.3 1 NIL_1    0.000
39 BP 131.104 69.260 -0.368 C.3 1 NIL_1    0.000
40 C_2318 130.599 67.556 -1.921 C.3 1 NIL_1    0.000
41 C_2588 124.816 71.657 2.959 C.3 1 NIL_1    0.000
42 C_2733 123.542 73.769 2.473 C.3 1 NIL_1    0.000
43 N 129.006 73.550 -1.282 N.am 1 NIL_1    0.000
44 C_2311 129.589 74.311 0.896 C.3 1 NIL_1    0.000
45 C_2320 131.951 68.041 0.060 C.3 1 NIL_1    0.000
46 C_2336 131.924 70.327 -1.120 C.2 1 NIL_1    0.000
47 BQ 131.819 67.054 -1.119 C.3 1 NIL_1    0.000
48 C_2334 129.334 72.820 -2.385 C.2 1 NIL_1    0.000
49 C_2309 128.809 75.003 -1.323 C.3 1 NIL_1    0.000
50 CQ 129.319 75.547 0.017 C.3 1 NIL_1    0.000
51 N 131.326 71.306 -1.874 N.am 1 NIL_1    0.000
52 O 133.137 70.307 -1.031 O.2 1 NIL_1    0.000
53 NH 131.707 65.673 -0.681 N.am 1 NIL_1    0.000
54 C_2339 133.083 66.943 -1.950 C.2 1 NIL_1    0.000
55 C_2333 129.875 71.415 -2.184 C.3 1 NIL_1    0.000
56 O 129.231 73.290 -3.501 O.2 1 NIL_1    0.000
57 NH 130.468 76.424 -0.149 N.am 1 NIL_1    0.000
58 C_2347 128.344 76.532 0.614 C.2 1 NIL_1    0.000
59 C_2583 132.155 72.291 -2.623 C.3 1 NIL_1    0.000
60 C_2341 132.717 64.896 -1.105 C.2 1 NIL_1    0.000
61 O 133.585 67.838 -2.601 O.2 1 NIL_1    0.000
62 N 133.543 65.668 -1.851 N.am 1 NIL_1    0.000
63 C_2569 130.203 77.704 0.155 C.2 1 NIL_1    0.000
64 O 127.219 76.280 1.001 O.2 1 NIL_1    0.000
65 N 128.933 77.752 0.626 N.am 1 NIL_1    0.000
66 C_2590 132.434 73.621 -1.868 C.3 1 NIL_1    0.000
67 O 132.847 63.713 -0.859 O.2 1 NIL_1    0.000
68 C_2577 134.757 65.112 -2.486 C.3 1 NIL_1    0.000
69 O 130.975 78.633 0.019 O.2 1 NIL_1    0.000
70 C_2579 128.248 78.991 1.033 C.3 1 NIL_1    0.000
71 C_2591 133.208 74.591 -2.781 C.3 1 NIL_1    0.000
72 C_2731 133.189 73.407 -0.539 C.3 1 NIL_1    0.000
73 C_2578 135.756 66.024 -3.175 C.2 1 NIL_1    0.000
74 C_2580 129.036 79.858 1.996 C.2 1 NIL_1    0.000
75 C_2597 135.693 66.224 -4.495 C.2 1 NIL_1    0.000
76 C_2593 136.725 66.628 -2.476 C.2 1 NIL_1    0.000
77 C_2602 129.341 81.121 1.676 C.2 1 NIL_1    0.000
78 C_2606 129.442 79.373 3.175 C.2 1 NIL_1    0.000
79 C_2596 136.577 67.015 -5.108 C.2 1 NIL_1    0.000
80 C_2594 137.610 67.420 -3.086 C.2 1 NIL_1    0.000
81 C_2603 130.037 81.886 2.518 C.2 1 NIL_1    0.000
82 C_2605 130.139 80.136 4.018 C.2 1 NIL_1    0.000
83 C_2595 137.536 67.615 -4.402 C.2 1 NIL_1    0.000
84 C_2604 130.436 81.394 3.691 C.2 1 NIL_1    0.000
85 H_2604 131.001 82.019 4.378 H 1 NIL_1    0.000
86 H_2595 138.258 68.259 -4.900 H 1 NIL_1    0.000
87 H_2605 130.467 79.731 4.973 H 1 NIL_1    0.000
88 H_2603 130.277 82.910 2.246 H 1 NIL_1    0.000
89 H_2594 138.394 67.905 -2.508 H 1 NIL_1    0.000
90 H_2596 136.518 67.169 -6.183 H 1 NIL_1    0.000
91 H_2606 129.207 78.348 3.453 H 1 NIL_1    0.000
92 H_2602 129.024 81.532 0.720 H 1 NIL_1    0.000
93 H_2593 136.798 66.475 -1.402 H 1 NIL_1    0.000
94 H_2597 134.917 65.739 -5.084 H 1 NIL_1    0.000
95 H_27311 134.147 72.910 -0.708 H 1 NIL_1    0.000
96 H_27312 132.598 72.797 0.149 H 1 NIL_1    0.000
97 H_27313 133.375 74.365 -0.049 H 1 NIL_1    0.000
98 H_25911 134.174 74.173 -3.074 H 1 NIL_1    0.000
99 H_25912 133.381 75.540 -2.269 H 1 NIL_1    0.000
100 H_25913 132.632 74.799 -3.686 H 1 NIL_1    0.000
101 H_25791 127.293 78.739 1.501 H 1 NIL_1    0.000
102 H_25792 128.024 79.557 0.124 H 1 NIL_1    0.000
103 H_25771 134.416 64.367 -3.211 H 1 NIL_1    0.000
104 H_25772 135.295 64.561 -1.710 H 1 NIL_1    0.000
105 H_2590 131.496 74.111 -1.629 H 1 NIL_1    0.000
106 H_25831 131.660 72.519 -3.570 H 1 NIL_1    0.000
107 H_25832 133.110 71.834 -2.895 H 1 NIL_1    0.000
108 H_23331 129.285 71.002 -1.377 H 1 NIL_1    0.000
109 H_23332 129.666 70.846 -3.095 H 1 NIL_1    0.000
110 H_23091 127.745 75.216 -1.451 H 1 NIL_1    0.000
111 H_23092 129.366 75.446 -2.153 H 1 NIL_1    0.000
112 H_23201 132.987 68.272 0.315 H 1 NIL_1    0.000
113 H_23202 131.486 67.608 0.951 H 1 NIL_1    0.000
114 H_23111 129.196 74.433 1.908 H 1 NIL_1    0.000
115 H_23112 130.666 74.155 0.983 H 1 NIL_1    0.000
116 H_27331 122.706 73.223 2.028 H 1 NIL_1    0.000
117 H_27332 123.576 74.765 2.028 H 1 NIL_1    0.000
118 H_27333 123.351 73.886 3.543 H 1 NIL_1    0.000
119 H_25881 124.601 71.795 4.022 H 1 NIL_1    0.000
120 H_25882 125.757 71.112 2.879 H 1 NIL_1    0.000
121 H_25883 124.032 71.028 2.533 H 1 NIL_1    0.000
122 H_23181 130.914 67.987 -2.876 H 1 NIL_1    0.000
123 H_23182 129.904 66.736 -2.113 H 1 NIL_1    0.000
124 HP 130.732 69.764 0.526 H 1 NIL_1    0.000
125 HP 129.645 72.257 0.268 H 1 NIL_1    0.000
126 H_2587 125.664 73.650 2.663 H 1 NIL_1    0.000
127 H_27291 124.198 66.737 2.396 H 1 NIL_1    0.000
128 H_27292 123.608 68.257 1.703 H 1 NIL_1    0.000
129 H_27293 124.513 68.274 3.220 H 1 NIL_1    0.000
130 H_25851 127.848 67.344 1.723 H 1 NIL_1    0.000
131 H_25852 126.680 66.211 2.413 H 1 NIL_1    0.000
132 H_25853 127.024 67.742 3.233 H 1 NIL_1    0.000
133 H_25821 124.422 72.021 0.425 H 1 NIL_1    0.000
134 H_25822 124.686 73.743 0.224 H 1 NIL_1    0.000
135 H_2584 125.972 69.020 1.384 H 1 NIL_1    0.000
136 H_23281 127.880 67.655 -2.358 H 1 NIL_1    0.000
137 H_23282 127.897 66.713 -0.855 H 1 NIL_1    0.000
138 H_25811 126.045 66.329 0.051 H 1 NIL_1    0.000
139 H_25812 124.594 67.211 -0.215 H 1 NIL_1    0.000
140 H_2600 116.889 65.054 1.115 H 1 NIL_1    0.000
141 H_23221 126.924 71.460 -1.587 H 1 NIL_1    0.000
142 H_23222 126.767 73.197 -1.882 H 1 NIL_1    0.000
143 H_2599 119.090 64.950 0.112 H 1 NIL_1    0.000
144 H_2601 115.435 66.931 0.639 H 1 NIL_1    0.000
145 H_2598 119.835 66.705 -1.360 H 1 NIL_1    0.000
146 H_2607 116.173 68.694 -0.826 H 1 NIL_1    0.000
147 HP 124.590 69.984 -0.201 H 1 NIL_1    0.000
148 H_23061 122.884 70.920 -3.546 H 1 NIL_1    0.000
149 H_23062 122.312 72.054 -2.288 H 1 NIL_1    0.000
150 H_23081 123.360 68.313 -2.385 H 1 NIL_1    0.000
151 H_23082 122.954 68.318 -0.657 H 1 NIL_1    0.000
152 H_26091 118.541 68.546 -3.130 H 1 NIL_1    0.000
153 H_26092 117.792 69.752 -2.079 H 1 NIL_1    0.000
154 HH 131.341 76.107 -0.543 H 1 NIL_1    0.000
155 HH 130.946 65.345 -0.104 H 1 NIL_1    0.000
156 HH 121.883 70.824 0.207 H 1 NIL_1    0.000
@<TRIPOS>BOND
1 1 4 1 
2 2 1 2 
3 3 1 1 
4 3 156 1 
5 4 6 1 
6 5 3 1 
7 5 7 1 
8 6 152 1 
9 6 153 1 
10 7 4 1 
11 8 12 1 
12 8 5 1 
13 8 150 1 
14 8 151 1 
15 9 5 1 
16 9 148 1 
17 9 149 1 
18 10 6 1 
19 11 7 2 
20 12 16 1 
21 12 147 1 
22 13 12 1 
23 13 9 1 
24 14 10 2 
25 14 146 1 
26 15 19 2 
27 15 10 1 
28 15 145 1 
29 16 20 1 
30 17 13 1 
31 18 14 1 
32 18 144 1 
33 19 24 1 
34 19 143 1 
35 20 25 1 
36 21 16 2 
37 22 17 1 
38 22 27 1 
39 22 141 1 
40 22 142 1 
41 23 17 2 
42 24 18 2 
43 24 140 1 
44 25 28 1 
45 25 138 1 
46 25 139 1 
47 26 29 1 
48 26 20 1 
49 26 136 1 
50 26 137 1 
51 27 30 1 
52 28 135 1 
53 29 34 1 
54 30 36 1 
55 30 133 1 
56 30 134 1 
57 31 27 1 
58 31 38 1 
59 32 28 1 
60 32 130 1 
61 32 131 1 
62 32 132 1 
63 33 28 1 
64 33 127 1 
65 33 128 1 
66 33 129 1 
67 35 29 2 
68 36 126 1 
69 37 31 2 
70 38 125 1 
71 39 34 1 
72 39 124 1 
73 40 47 1 
74 40 34 1 
75 40 122 1 
76 40 123 1 
77 41 36 1 
78 41 119 1 
79 41 120 1 
80 41 121 1 
81 42 36 1 
82 42 116 1 
83 42 117 1 
84 42 118 1 
85 43 38 1 
86 43 48 1 
87 44 38 1 
88 44 50 1 
89 44 114 1 
90 44 115 1 
91 45 39 1 
92 45 47 1 
93 45 112 1 
94 45 113 1 
95 46 51 1 
96 46 39 1 
97 47 53 1 
98 47 54 1 
99 49 50 1 
100 49 43 1 
101 49 110 1 
102 49 111 1 
103 50 57 1 
104 50 58 1 
105 51 59 1 
106 52 46 2 
107 53 60 1 
108 53 155 1 
109 54 62 1 
110 55 48 1 
111 55 51 1 
112 55 108 1 
113 55 109 1 
114 56 48 2 
115 57 63 1 
116 57 154 1 
117 58 65 1 
118 59 66 1 
119 59 106 1 
120 59 107 1 
121 60 62 1 
122 61 54 2 
123 62 68 1 
124 63 65 1 
125 64 58 2 
126 65 70 1 
127 66 105 1 
128 67 60 2 
129 68 73 1 
130 68 103 1 
131 68 104 1 
132 69 63 2 
133 70 101 1 
134 70 102 1 
135 71 66 1 
136 71 98 1 
137 71 99 1 
138 71 100 1 
139 72 66 1 
140 73 75 1 
141 74 70 1 
142 76 80 1 
143 76 73 2 
144 77 74 2 
145 78 82 2 
146 78 74 1 
147 79 75 2 
148 80 83 2 
149 81 77 1 
150 82 84 1 
151 83 79 1 
152 84 81 2 
153 85 84 1 
154 86 83 1 
155 87 82 1 
156 88 81 1 
157 89 80 1 
158 90 79 1 
159 91 78 1 
160 92 77 1 
161 93 76 1 
162 94 75 1 
163 95 72 1 
164 96 72 1 
165 97 72 1 
@<TRIPOS>SUBSTRUCTURE
1 NIL_1 1 RESIDUE 1 A NIL 1
