@<TRIPOS>MOLECULE
NIL
147 156 4 0 0
POLYMER
CHARGES


@<TRIPOS>ATOM
1 C_2506 155.364 145.589 -1.07572 C.3 1 NIL_1    0.000
2 N 154.304 145.842 -0.089 N.am 1 NIL_1    0.000
3 BQ 155.898 144.184 -0.745 C.3 1 NIL_1    0.000
4 BP 153.645 144.521 0.110 C.3 1 NIL_1    0.000
5 C_2508 154.683 143.421 -0.193 C.3 1 NIL_1    0.000
6 C_2543 156.511 143.482 -1.930 C.2 1 NIL_1    0.000
7 N 157.061 144.194 0.156 N.am 1 NIL_1    0.000
8 C_2526 152.925 144.265 1.435 C.2 1 NIL_1    0.000
9 N 157.785 143.152 -1.619 N.am 1 NIL_1    0.000
10 O 155.955 143.245 -2.987 O.2 1 NIL_1    0.000
11 C_2545 158.140 143.586 -0.384 C.2 1 NIL_1    0.000
12 C_2580 156.915 144.776 1.512 C.3 1 NIL_1    0.000
13 O 153.539 143.980 2.443 O.2 1 NIL_1    0.000
14 C_2557 158.663 142.392 -2.531 C.3 1 NIL_1    0.000
15 O 159.228 143.446 0.143 O.2 1 NIL_1    0.000
16 C_2581 158.201 145.182 2.201 C.2 1 NIL_1    0.000
17 C_2558 159.562 141.372 -1.854 C.2 1 NIL_1    0.000
18 OH 158.599 146.388 1.891 O.3 1 NIL_1    0.000
19 O 158.771 144.485 3.015 O.2 1 NIL_1    0.000
20 C_2568 160.892 141.497 -1.917 C.2 1 NIL_1    0.000
21 C_2572 159.040 140.351 -1.163 C.2 1 NIL_1    0.000
22 C_2569 161.687 140.623 -1.298 C.2 1 NIL_1    0.000
23 C_2571 159.833 139.477 -0.541 C.2 1 NIL_1    0.000
24 C_2570 161.157 139.613 -0.609 C.2 1 NIL_1    0.000
25 H_2570 161.804 138.903 -0.099 H 1 NIL_1    0.000
26 H_2571 159.399 138.657 0.025 H 1 NIL_1    0.000
27 H_2569 162.766 140.738 -1.353 H 1 NIL_1    0.000
28 H_2572 157.961 140.236 -1.094 H 1 NIL_1    0.000
29 H_2568 161.336 142.322 -2.468 H 1 NIL_1    0.000
30 H_25571 159.268 143.115 -3.085 H 1 NIL_1    0.000
31 H_25572 158.040 141.865 -3.259 H 1 NIL_1    0.000
32 H_25801 156.426 144.043 2.158 H 1 NIL_1    0.000
33 H_25802 156.293 145.670 1.476 H 1 NIL_1    0.000
34 H_25081 154.963 142.833 0.685 H 1 NIL_1    0.000
35 H_25082 154.269 142.735 -0.936 H 1 NIL_1    0.000
36 HP 152.905 144.441 -0.687 H 1 NIL_1    0.000
37 H_25061 156.188 146.288 -1.012 H 1 NIL_1    0.000
38 H_25062 154.922 145.615 -2.075 H 1 NIL_1    0.000
39 HH 159.400 146.574 2.416 H 1 NIL_1    0.000
40 O 151.671 148.444 -1.203 O.2 2 NIL_2    0.000
41 C_2534 150.902 149.336 -0.904 C.2 2 NIL_2    0.000
42 N 151.379 150.587 -0.624 N.am 2 NIL_2    0.000
43 DC 149.419 148.982 -0.795 C.3 2 NIL_2    0.000
44 C_2509 150.610 151.832 -0.453 C.3 2 NIL_2    0.000
45 CP 152.812 150.884 -0.417 C.3 2 NIL_2    0.000
46 NH 148.945 149.001 0.599 N.am 2 NIL_2    0.000
47 C_2705 148.501 149.794 -1.734 C.3 2 NIL_2    0.000
48 CQ 151.597 153.023 -0.508 C.3 2 NIL_2    0.000
49 C_2511 153.010 152.405 -0.564 C.3 2 NIL_2    0.000
50 C_2531 153.271 150.436 0.969 C.2 2 NIL_2    0.000
51 C_2547 151.357 153.862 -1.747 C.2 2 NIL_2    0.000
52 N 151.405 154.078 0.498 N.am 2 NIL_2    0.000
53 O 152.909 151.007 1.976 O.2 2 NIL_2    0.000
54 NH 154.086 149.371 1.123 N.am 2 NIL_2    0.000
55 N 151.144 155.147 -1.380 N.am 2 NIL_2    0.000
56 O 151.346 153.452 -2.893 O.2 2 NIL_2    0.000
57 C_2549 151.156 155.292 -0.032 C.2 2 NIL_2    0.000
58 C_2582 151.391 153.756 1.937 C.3 2 NIL_2    0.000
59 DB 154.557 148.372 0.144 C.3 2 NIL_2    0.000
60 C_2561 150.863 156.210 -2.370 C.3 2 NIL_2    0.000
61 O 150.965 156.312 0.603 O.2 2 NIL_2    0.000
62 C_2583 152.689 154.063 2.656 C.2 2 NIL_2    0.000
63 C_2523 154.086 146.986 0.635 C.2 2 NIL_2    0.000
64 C_2709 156.080 148.580 -0.022 C.3 2 NIL_2    0.000
65 C_2562 150.950 157.665 -1.949 C.2 2 NIL_2    0.000
66 OH 152.724 153.565 3.864 O.3 2 NIL_2    0.000
67 O 153.613 154.689 2.176 O.2 2 NIL_2    0.000
68 O 153.450 146.924 1.672 O.2 2 NIL_2    0.000
69 C_2573 149.841 158.391 -1.769 C.2 2 NIL_2    0.000
70 C_2577 152.140 158.248 -1.760 C.2 2 NIL_2    0.000
71 C_2574 149.917 159.673 -1.404 C.2 2 NIL_2    0.000
72 C_2576 152.221 159.529 -1.393 C.2 2 NIL_2    0.000
73 C_2575 151.108 160.242 -1.216 C.2 2 NIL_2    0.000
74 H_2575 151.172 161.286 -0.917 H 2 NIL_2    0.000
75 H_2576 153.193 159.991 -1.240 H 2 NIL_2    0.000
76 H_2574 149.009 160.253 -1.259 H 2 NIL_2    0.000
77 H_2577 153.054 157.676 -1.904 H 2 NIL_2    0.000
78 H_2573 148.864 157.939 -1.919 H 2 NIL_2    0.000
79 H_27091 156.641 148.046 0.747 H 2 NIL_2    0.000
80 H_27092 156.332 149.642 0.052 H 2 NIL_2    0.000
81 H_27093 156.420 148.274 -1.011 H 2 NIL_2    0.000
82 H_25611 149.862 156.018 -2.766 H 2 NIL_2    0.000
83 H_25612 151.559 156.070 -3.202 H 2 NIL_2    0.000
84 HB 154.087 148.528 -0.826 H 2 NIL_2    0.000
85 H_25821 151.167 152.701 2.090 H 2 NIL_2    0.000
86 H_25822 150.606 154.338 2.429 H 2 NIL_2    0.000
87 H_25111 153.673 152.810 0.203 H 2 NIL_2    0.000
88 H_25112 153.482 152.610 -1.529 H 2 NIL_2    0.000
89 H_27051 148.998 150.005 -2.684 H 2 NIL_2    0.000
90 H_27052 148.186 150.734 -1.278 H 2 NIL_2    0.000
91 H_27053 147.592 149.230 -1.953 H 2 NIL_2    0.000
92 HP 153.410 150.392 -1.184 H 2 NIL_2    0.000
93 H_25091 150.080 151.793 0.501 H 2 NIL_2    0.000
94 H_25092 149.885 151.944 -1.258 H 2 NIL_2    0.000
95 HC 149.382 147.953 -1.159 H 2 NIL_2    0.000
96 HH 154.378 149.182 2.069 H 2 NIL_2    0.000
97 HH 149.306 149.746 1.177 H 2 NIL_2    0.000
98 HH 153.591 153.789 4.249 H 2 NIL_2    0.000
99 O 147.700 148.315 2.310 O.2 3 NIL_3    0.000
100 C_2536 148.044 148.148 1.158 C.2 3 NIL_3    0.000
101 AP 147.518 146.982 0.315 C.3 3 NIL_3    0.000
102 C_2520 146.222 146.324 0.814 C.3 3 NIL_3    0.000
103 N 148.448 145.862 0.044 N.am 3 NIL_3    0.000
104 AQ 146.160 145.054 -0.064 C.3 3 NIL_3    0.000
105 C_2518 147.574 144.924 -0.685 C.3 3 NIL_3    0.000
106 C_2539 145.108 145.158 -1.142 C.2 3 NIL_3    0.000
107 N 145.690 143.837 0.605 N.am 3 NIL_3    0.000
108 N 144.272 144.097 -1.035 N.am 3 NIL_3    0.000
109 O 145.037 146.028 -1.989 O.2 3 NIL_3    0.000
110 C_2541 144.618 143.285 -0.005 C.2 3 NIL_3    0.000
111 C_2578 146.566 143.196 1.607 C.3 3 NIL_3    0.000
112 C_2559 143.240 143.780 -2.043 C.3 3 NIL_3    0.000
113 O 144.087 142.232 0.290 O.2 3 NIL_3    0.000
114 C_2579 145.827 142.482 2.719 C.2 3 NIL_3    0.000
115 C_2560 141.920 143.203 -1.559 C.2 3 NIL_3    0.000
116 OH 146.102 141.205 2.785 O.3 3 NIL_3    0.000
117 O 145.053 143.033 3.475 O.2 3 NIL_3    0.000
118 C_2563 141.556 141.961 -1.903 C.2 3 NIL_3    0.000
119 C_2567 141.088 143.933 -0.808 C.2 3 NIL_3    0.000
120 C_2564 140.387 141.459 -1.504 C.2 3 NIL_3    0.000
121 C_2566 139.917 143.433 -0.407 C.2 3 NIL_3    0.000
122 C_2565 139.565 142.196 -0.755 C.2 3 NIL_3    0.000
123 H_2565 138.611 141.789 -0.432 H 3 NIL_3    0.000
124 H_2566 139.248 144.037 0.201 H 3 NIL_3    0.000
125 H_2564 140.099 140.451 -1.795 H 3 NIL_3    0.000
126 H_2567 141.363 144.946 -0.522 H 3 NIL_3    0.000
127 H_2563 142.212 141.351 -2.520 H 3 NIL_3    0.000
128 H_25591 143.697 143.084 -2.751 H 3 NIL_3    0.000
129 H_25592 143.012 144.692 -2.602 H 3 NIL_3    0.000
130 H_25781 147.208 143.939 2.083 H 3 NIL_3    0.000
131 H_25782 147.202 142.468 1.096 H 3 NIL_3    0.000
132 H_25181 147.903 143.892 -0.606 H 3 NIL_3    0.000
133 H_25182 147.569 145.213 -1.740 H 3 NIL_3    0.000
134 H_25201 146.309 146.061 1.872 H 3 NIL_3    0.000
135 H_25202 145.352 146.974 0.688 H 3 NIL_3    0.000
136 HP 147.274 147.423 -0.656 H 3 NIL_3    0.000
137 HH 145.586 140.832 3.522 H 3 NIL_3    0.000
138 DA 150.637 144.691 0.400 C.3 4 NIL_4    0.000
139 NH 151.575 144.391 1.499 N.am 4 NIL_4    0.000
140 C_2537 149.403 145.441 0.928 C.2 4 NIL_4    0.000
141 C_2707 150.316 143.371 -0.334 C.3 4 NIL_4    0.000
142 O 149.308 145.715 2.111 O.2 4 NIL_4    0.000
143 H_27071 151.227 142.792 -0.508 H 4 NIL_4    0.000
144 H_27072 149.877 143.569 -1.312 H 4 NIL_4    0.000
145 H_27073 149.633 142.753 0.254 H 4 NIL_4    0.000
146 HA 151.113 145.382 -0.299 H 4 NIL_4    0.000
147 HH 151.144 144.222 2.396 H 4 NIL_4    0.000
@<TRIPOS>BOND
1 2 1 1 
2 2 63 1 
3 3 1 1 
4 3 6 1 
5 3 7 1 
6 4 5 1 
7 4 2 1 
8 4 8 1 
9 5 3 1 
10 6 10 2 
11 7 11 1 
12 9 6 1 
13 9 14 1 
14 11 9 1 
15 11 15 2 
16 12 7 1 
17 13 8 2 
18 16 12 1 
19 17 14 1 
20 18 16 1 
21 19 16 2 
22 20 17 2 
23 21 23 2 
24 21 17 1 
25 22 20 1 
26 23 24 1 
27 24 22 2 
28 25 24 1 
29 26 23 1 
30 27 22 1 
31 28 21 1 
32 29 20 1 
33 30 14 1 
34 31 14 1 
35 32 12 1 
36 33 12 1 
37 34 5 1 
38 35 5 1 
39 36 4 1 
40 37 1 1 
41 38 1 1 
42 39 18 1 
43 40 41 2 
44 42 44 1 
45 42 41 1 
46 42 45 1 
47 43 46 1 
48 43 41 1 
49 44 48 1 
50 45 49 1 
51 46 100 1 
52 47 43 1 
53 47 89 1 
54 47 90 1 
55 47 91 1 
56 49 48 1 
57 50 45 1 
58 51 48 1 
59 52 57 1 
60 52 48 1 
61 53 50 2 
62 54 50 1 
63 55 51 1 
64 56 51 2 
65 57 55 1 
66 58 52 1 
67 58 85 1 
68 58 86 1 
69 59 54 1 
70 59 63 1 
71 60 55 1 
72 61 57 2 
73 62 58 1 
74 64 59 1 
75 64 79 1 
76 64 80 1 
77 64 81 1 
78 65 60 1 
79 66 62 1 
80 67 62 2 
81 68 63 2 
82 69 65 2 
83 70 72 2 
84 70 65 1 
85 70 77 1 
86 71 69 1 
87 71 76 1 
88 72 73 1 
89 72 75 1 
90 73 71 2 
91 73 74 1 
92 78 69 1 
93 82 60 1 
94 83 60 1 
95 84 59 1 
96 87 49 1 
97 88 49 1 
98 92 45 1 
99 93 44 1 
100 94 44 1 
101 95 43 1 
102 96 54 1 
103 97 46 1 
104 98 66 1 
105 99 100 2 
106 101 102 1 
107 101 103 1 
108 101 100 1 
109 102 104 1 
110 103 105 1 
111 103 140 1 
112 104 105 1 
113 106 104 1 
114 106 109 2 
115 107 110 1 
116 107 104 1 
117 108 106 1 
118 108 112 1 
119 110 108 1 
120 110 113 2 
121 111 107 1 
122 111 130 1 
123 111 131 1 
124 114 111 1 
125 115 112 1 
126 116 114 1 
127 117 114 2 
128 118 115 2 
129 119 121 2 
130 119 115 1 
131 120 118 1 
132 121 122 1 
133 122 120 2 
134 123 122 1 
135 124 121 1 
136 125 120 1 
137 126 119 1 
138 127 118 1 
139 128 112 1 
140 129 112 1 
141 132 105 1 
142 133 105 1 
143 134 102 1 
144 135 102 1 
145 136 101 1 
146 137 116 1 
147 138 139 1 
148 138 140 1 
149 139 8 1 
150 141 138 1 
151 142 140 2 
152 143 141 1 
153 144 141 1 
154 145 141 1 
155 146 138 1 
156 147 139 1 
@<TRIPOS>SUBSTRUCTURE
1 NIL_1 1 RESIDUE 1 A NIL 1
2 NIL_2 40 RESIDUE 1 A NIL 1
3 NIL_3 99 RESIDUE 1 A NIL 1
4 NIL_4 138 RESIDUE 1 A NIL 1
