@<TRIPOS>MOLECULE
NIL
174 183 1 0 0
POLYMER
CHARGES


@<TRIPOS>ATOM
1 C_2253 139.655 152.656 -4.31979 C.2 1 NIL_1    0.000
2 C_2230 139.241 152.739 -3.051 C.2 1 NIL_1    0.000
3 C_2254 140.576 153.501 -4.790 C.2 1 NIL_1    0.000
4 C_2229 138.201 151.770 -2.522 C.3 1 NIL_1    0.000
5 C_2257 139.759 153.687 -2.263 C.2 1 NIL_1    0.000
6 C_2255 141.089 154.439 -3.995 C.2 1 NIL_1    0.000
7 N 138.816 150.534 -2.002 N.am 1 NIL_1    0.000
8 C_2256 140.679 154.534 -2.730 C.2 1 NIL_1    0.000
9 C_2215 138.947 149.388 -2.712 C.2 1 NIL_1    0.000
10 C_2217 139.335 150.421 -0.759 C.2 1 NIL_1    0.000
11 C_2178 139.612 148.345 -1.832 C.3 1 NIL_1    0.000
12 O 138.581 149.230 -3.861 O.2 1 NIL_1    0.000
13 N 139.813 149.169 -0.636 N.am 1 NIL_1    0.000
14 O 139.376 151.290 0.091 O.2 1 NIL_1    0.000
15 C_2177 138.664 147.136 -1.654 C.3 1 NIL_1    0.000
16 C_2179 140.894 147.782 -2.482 C.3 1 NIL_1    0.000
17 C_2361 140.570 148.644 0.513 C.3 1 NIL_1    0.000
18 N 139.200 146.008 -2.442 N.am 1 NIL_1    0.000
19 C_2198 140.461 146.430 -3.080 C.3 1 NIL_1    0.000
20 C_2367 139.714 148.368 1.730 C.2 1 NIL_1    0.000
21 C_2202 138.532 144.854 -2.719 C.2 1 NIL_1    0.000
22 C_2199 141.614 145.424 -3.212 C.2 1 NIL_1    0.000
23 OH 140.409 148.317 2.835 O.3 1 NIL_1    0.000
24 O 138.513 148.190 1.699 O.2 1 NIL_1    0.000
25 O 138.996 144.017 -3.470 O.2 1 NIL_1    0.000
26 C_2201 137.180 144.655 -2.042 C.3 1 NIL_1    0.000
27 O 142.211 145.438 -4.272 O.2 1 NIL_1    0.000
28 N 141.938 144.495 -2.246 N.am 1 NIL_1    0.000
29 N 136.424 143.464 -2.510 N.am 1 NIL_1    0.000
30 C_2190 142.883 143.396 -2.627 C.3 1 NIL_1    0.000
31 C_2232 142.084 144.852 -0.802 C.3 1 NIL_1    0.000
32 C_2204 136.331 142.334 -1.743 C.2 1 NIL_1    0.000
33 C_2233 135.798 143.662 -3.846 C.3 1 NIL_1    0.000
34 C_2191 142.629 142.011 -2.044 C.2 1 NIL_1    0.000
35 C_2237 140.848 144.745 0.138 C.3 1 NIL_1    0.000
36 O 136.766 142.314 -0.607 O.2 1 NIL_1    0.000
37 C_2203 135.652 141.085 -2.310 C.3 1 NIL_1    0.000
38 C_2240 134.736 144.793 -3.948 C.3 1 NIL_1    0.000
39 O 142.417 141.835 -0.865 O.2 1 NIL_1    0.000
40 N 142.765 140.964 -2.905 N.am 1 NIL_1    0.000
41 C_2238 141.257 145.038 1.601 C.3 1 NIL_1    0.000
42 C_2457 140.089 143.400 0.067 C.3 1 NIL_1    0.000
43 C_2188 134.129 141.186 -2.104 C.3 1 NIL_1    0.000
44 N 136.093 139.817 -1.678 N.am 1 NIL_1    0.000
45 C_2241 133.654 144.720 -2.844 C.3 1 NIL_1    0.000
46 C_2459 134.076 144.751 -5.342 C.3 1 NIL_1    0.000
47 C_2174 144.096 140.689 -3.469 C.3 1 NIL_1    0.000
48 C_2193 142.168 139.619 -2.740 C.3 1 NIL_1    0.000
49 C_2187 133.682 139.759 -1.755 C.3 1 NIL_1    0.000
50 C_2186 134.925 139.108 -1.129 C.3 1 NIL_1    0.000
51 C_2205 137.361 139.318 -1.641 C.2 1 NIL_1    0.000
52 C_2175 144.528 139.305 -2.913 C.3 1 NIL_1    0.000
53 C_2176 143.294 138.759 -2.157 C.3 1 NIL_1    0.000
54 C_2194 140.836 139.545 -1.986 C.2 1 NIL_1    0.000
55 C_2207 133.247 139.026 -3.003 C.2 1 NIL_1    0.000
56 N 132.439 139.663 -0.992 N.am 1 NIL_1    0.000
57 O 137.599 138.253 -1.106 O.2 1 NIL_1    0.000
58 C_2196 138.469 140.155 -2.264 C.3 1 NIL_1    0.000
59 C_2211 144.948 138.385 -4.036 C.2 1 NIL_1    0.000
60 N 145.774 139.308 -2.150 N.am 1 NIL_1    0.000
61 O 140.792 139.638 -0.774 O.2 1 NIL_1    0.000
62 N 139.673 139.414 -2.692 N.am 1 NIL_1    0.000
63 N 131.940 138.698 -2.877 N.am 1 NIL_1    0.000
64 O 133.947 138.778 -3.967 O.2 1 NIL_1    0.000
65 C_2209 131.436 139.081 -1.677 C.2 1 NIL_1    0.000
66 C_2351 132.355 140.270 0.348 C.3 1 NIL_1    0.000
67 N 146.242 138.031 -3.851 N.am 1 NIL_1    0.000
68 O 144.245 138.026 -4.962 O.2 1 NIL_1    0.000
69 C_2213 146.754 138.578 -2.718 C.2 1 NIL_1    0.000
70 C_2357 145.873 140.114 -0.920 C.3 1 NIL_1    0.000
71 C_2231 139.495 138.751 -4.014 C.3 1 NIL_1    0.000
72 C_2227 131.161 138.070 -3.960 C.3 1 NIL_1    0.000
73 O 130.294 138.945 -1.281 O.2 1 NIL_1    0.000
74 C_2355 131.423 141.463 0.403 C.2 1 NIL_1    0.000
75 C_2225 146.996 137.228 -4.837 C.3 1 NIL_1    0.000
76 O 147.882 138.454 -2.283 O.2 1 NIL_1    0.000
77 C_2359 147.035 141.089 -0.934 C.2 1 NIL_1    0.000
78 C_2234 139.214 137.226 -3.929 C.3 1 NIL_1    0.000
79 C_2228 130.185 137.002 -3.512 C.2 1 NIL_1    0.000
80 OH 130.913 141.654 1.591 O.3 1 NIL_1    0.000
81 O 131.178 142.184 -0.544 O.2 1 NIL_1    0.000
82 C_2226 148.223 136.480 -4.351 C.2 1 NIL_1    0.000
83 OH 147.718 141.097 0.180 O.3 1 NIL_1    0.000
84 O 147.337 141.766 -1.897 O.2 1 NIL_1    0.000
85 C_2235 140.345 136.449 -3.219 C.3 1 NIL_1    0.000
86 C_2463 138.999 136.643 -5.343 C.3 1 NIL_1    0.000
87 C_2243 130.634 135.830 -3.053 C.2 1 NIL_1    0.000
88 C_2247 128.866 137.219 -3.561 C.2 1 NIL_1    0.000
89 C_2248 149.449 136.939 -4.625 C.2 1 NIL_1    0.000
90 C_2252 148.096 135.359 -3.633 C.2 1 NIL_1    0.000
91 C_2244 129.780 134.889 -2.646 C.2 1 NIL_1    0.000
92 C_2246 128.010 136.282 -3.151 C.2 1 NIL_1    0.000
93 C_2249 150.531 136.293 -4.185 C.2 1 NIL_1    0.000
94 C_2251 149.177 134.710 -3.192 C.2 1 NIL_1    0.000
95 C_2245 128.468 135.119 -2.692 C.2 1 NIL_1    0.000
96 C_2250 150.394 135.178 -3.468 C.2 1 NIL_1    0.000
97 H_2250 151.275 134.653 -3.107 H 1 NIL_1    0.000
98 H_2245 127.771 134.360 -2.348 H 1 NIL_1    0.000
99 H_2251 149.063 133.800 -2.607 H 1 NIL_1    0.000
100 H_2249 151.522 136.677 -4.411 H 1 NIL_1    0.000
101 H_2246 126.941 136.471 -3.190 H 1 NIL_1    0.000
102 H_2244 130.155 133.938 -2.275 H 1 NIL_1    0.000
103 H_2252 147.107 134.971 -3.400 H 1 NIL_1    0.000
104 H_2248 149.573 137.851 -5.205 H 1 NIL_1    0.000
105 H_2247 128.482 138.167 -3.930 H 1 NIL_1    0.000
106 H_2243 131.702 135.638 -3.008 H 1 NIL_1    0.000
107 H_24631 139.906 136.742 -5.946 H 1 NIL_1    0.000
108 H_24632 138.185 137.160 -5.857 H 1 NIL_1    0.000
109 H_24633 138.741 135.583 -5.286 H 1 NIL_1    0.000
110 H_22351 141.285 136.538 -3.769 H 1 NIL_1    0.000
111 H_22352 140.089 135.389 -3.148 H 1 NIL_1    0.000
112 H_22353 140.500 136.815 -2.202 H 1 NIL_1    0.000
113 H_2234 138.291 137.073 -3.368 H 1 NIL_1    0.000
114 H_22251 147.291 137.906 -5.642 H 1 NIL_1    0.000
115 H_22252 146.311 136.497 -5.276 H 1 NIL_1    0.000
116 H_22271 131.854 137.613 -4.672 H 1 NIL_1    0.000
117 H_22272 130.625 138.862 -4.491 H 1 NIL_1    0.000
118 H_22311 140.344 138.931 -4.673 H 1 NIL_1    0.000
119 H_22312 138.634 139.204 -4.516 H 1 NIL_1    0.000
120 H_23571 145.995 139.437 -0.069 H 1 NIL_1    0.000
121 H_23572 144.964 140.702 -0.769 H 1 NIL_1    0.000
122 H_23511 133.337 140.614 0.680 H 1 NIL_1    0.000
123 H_23512 131.993 139.519 1.054 H 1 NIL_1    0.000
124 H_21961 138.069 140.687 -3.130 H 1 NIL_1    0.000
125 H_21962 138.754 140.903 -1.520 H 1 NIL_1    0.000
126 H_21761 143.381 138.935 -1.083 H 1 NIL_1    0.000
127 H_21762 143.125 137.692 -2.327 H 1 NIL_1    0.000
128 H_21861 134.923 139.238 -0.043 H 1 NIL_1    0.000
129 H_21862 134.967 138.042 -1.366 H 1 NIL_1    0.000
130 H_2193 142.004 139.240 -3.745 H 1 NIL_1    0.000
131 H_21741 144.807 141.466 -3.178 H 1 NIL_1    0.000
132 H_21742 144.022 140.667 -4.561 H 1 NIL_1    0.000
133 H_24591 134.836 144.783 -6.127 H 1 NIL_1    0.000
134 H_24592 133.409 145.607 -5.481 H 1 NIL_1    0.000
135 H_24593 133.492 143.835 -5.470 H 1 NIL_1    0.000
136 H_22411 133.069 143.803 -2.921 H 1 NIL_1    0.000
137 H_22412 132.966 145.564 -2.935 H 1 NIL_1    0.000
138 H_22413 134.099 144.766 -1.848 H 1 NIL_1    0.000
139 H_21881 133.924 141.859 -1.267 H 1 NIL_1    0.000
140 H_21882 133.618 141.571 -2.989 H 1 NIL_1    0.000
141 H_24571 139.960 143.065 -0.964 H 1 NIL_1    0.000
142 H_24572 139.096 143.503 0.509 H 1 NIL_1    0.000
143 H_24573 140.609 142.621 0.628 H 1 NIL_1    0.000
144 H_22381 141.936 144.271 1.982 H 1 NIL_1    0.000
145 H_22382 140.374 145.064 2.245 H 1 NIL_1    0.000
146 H_22383 141.763 146.003 1.684 H 1 NIL_1    0.000
147 H_2240 135.241 145.757 -3.860 H 1 NIL_1    0.000
148 H_2203 135.880 140.998 -3.375 H 1 NIL_1    0.000
149 H_2237 140.154 145.524 -0.139 H 1 NIL_1    0.000
150 H_22331 135.326 142.743 -4.188 H 1 NIL_1    0.000
151 H_22332 136.593 143.881 -4.564 H 1 NIL_1    0.000
152 H_22321 142.453 145.879 -0.757 H 1 NIL_1    0.000
153 H_22322 142.881 144.242 -0.368 H 1 NIL_1    0.000
154 H_21901 143.897 143.684 -2.333 H 1 NIL_1    0.000
155 H_21902 142.876 143.260 -3.712 H 1 NIL_1    0.000
156 H_22011 137.374 144.592 -0.969 H 1 NIL_1    0.000
157 H_22012 136.583 145.552 -2.207 H 1 NIL_1    0.000
158 H_2198 140.177 146.646 -4.114 H 1 NIL_1    0.000
159 H_23611 141.328 149.381 0.793 H 1 NIL_1    0.000
160 H_23612 141.073 147.711 0.258 H 1 NIL_1    0.000
161 H_21791 141.685 147.633 -1.748 H 1 NIL_1    0.000
162 H_21792 141.286 148.449 -3.254 H 1 NIL_1    0.000
163 H_21771 138.595 146.844 -0.604 H 1 NIL_1    0.000
164 H_21772 137.661 147.393 -2.005 H 1 NIL_1    0.000
165 H_2256 141.087 155.306 -2.083 H 1 NIL_1    0.000
166 H_2255 141.838 155.128 -4.374 H 1 NIL_1    0.000
167 H_2257 139.434 153.775 -1.229 H 1 NIL_1    0.000
168 H_22291 137.625 152.242 -1.720 H 1 NIL_1    0.000
169 H_22292 137.496 151.517 -3.319 H 1 NIL_1    0.000
170 H_2254 140.912 153.419 -5.820 H 1 NIL_1    0.000
171 H_2253 139.239 151.896 -4.978 H 1 NIL_1    0.000
172 HH 148.446 141.734 0.069 H 1 NIL_1    0.000
173 HH 130.345 142.443 1.538 H 1 NIL_1    0.000
174 HH 139.784 148.143 3.561 H 1 NIL_1    0.000
@<TRIPOS>BOND
1 1 2 2 
2 1 171 1 
3 2 4 1 
4 3 1 1 
5 3 170 1 
6 4 7 1 
7 4 168 1 
8 4 169 1 
9 5 8 2 
10 5 2 1 
11 5 167 1 
12 6 3 2 
13 6 166 1 
14 7 9 1 
15 8 6 1 
16 8 165 1 
17 9 11 1 
18 10 7 1 
19 11 15 1 
20 12 9 2 
21 13 10 1 
22 13 11 1 
23 14 10 2 
24 16 11 1 
25 17 13 1 
26 17 159 1 
27 17 160 1 
28 18 15 1 
29 19 16 1 
30 19 18 1 
31 20 17 1 
32 21 18 1 
33 22 19 1 
34 23 20 1 
35 23 174 1 
36 24 20 2 
37 25 21 2 
38 26 29 1 
39 26 21 1 
40 26 156 1 
41 26 157 1 
42 27 22 2 
43 28 22 1 
44 29 32 1 
45 30 28 1 
46 30 34 1 
47 30 154 1 
48 30 155 1 
49 31 28 1 
50 31 152 1 
51 31 153 1 
52 33 29 1 
53 33 150 1 
54 33 151 1 
55 35 31 1 
56 35 149 1 
57 36 32 2 
58 37 43 1 
59 37 44 1 
60 37 32 1 
61 37 148 1 
62 38 33 1 
63 38 147 1 
64 39 34 2 
65 40 47 1 
66 40 34 1 
67 41 35 1 
68 41 144 1 
69 41 145 1 
70 41 146 1 
71 42 35 1 
72 42 141 1 
73 42 142 1 
74 42 143 1 
75 43 49 1 
76 43 139 1 
77 43 140 1 
78 44 50 1 
79 44 51 1 
80 45 38 1 
81 45 136 1 
82 45 137 1 
83 45 138 1 
84 46 38 1 
85 46 133 1 
86 46 134 1 
87 46 135 1 
88 47 131 1 
89 47 132 1 
90 48 53 1 
91 48 40 1 
92 48 54 1 
93 48 130 1 
94 49 50 1 
95 50 128 1 
96 50 129 1 
97 52 47 1 
98 53 52 1 
99 53 126 1 
100 53 127 1 
101 55 49 1 
102 56 65 1 
103 56 49 1 
104 57 51 2 
105 58 51 1 
106 58 124 1 
107 58 125 1 
108 59 52 1 
109 60 69 1 
110 60 52 1 
111 61 54 2 
112 62 54 1 
113 62 58 1 
114 63 55 1 
115 64 55 2 
116 65 63 1 
117 66 56 1 
118 66 122 1 
119 66 123 1 
120 67 59 1 
121 68 59 2 
122 69 67 1 
123 70 60 1 
124 70 120 1 
125 70 121 1 
126 71 62 1 
127 71 118 1 
128 71 119 1 
129 72 63 1 
130 72 116 1 
131 72 117 1 
132 73 65 2 
133 74 66 1 
134 75 67 1 
135 75 114 1 
136 75 115 1 
137 76 69 2 
138 77 70 1 
139 78 71 1 
140 78 113 1 
141 79 72 1 
142 80 74 1 
143 80 173 1 
144 81 74 2 
145 82 75 1 
146 83 77 1 
147 83 172 1 
148 84 77 2 
149 85 78 1 
150 85 110 1 
151 85 111 1 
152 85 112 1 
153 86 78 1 
154 86 107 1 
155 86 108 1 
156 86 109 1 
157 87 79 2 
158 88 92 2 
159 88 79 1 
160 89 82 2 
161 90 94 2 
162 90 82 1 
163 91 87 1 
164 92 95 1 
165 93 89 1 
166 93 96 2 
167 94 96 1 
168 95 91 2 
169 97 96 1 
170 98 95 1 
171 99 94 1 
172 100 93 1 
173 101 92 1 
174 102 91 1 
175 103 90 1 
176 104 89 1 
177 105 88 1 
178 106 87 1 
179 158 19 1 
180 161 16 1 
181 162 16 1 
182 163 15 1 
183 164 15 1 
@<TRIPOS>SUBSTRUCTURE
1 NIL_1 1 RESIDUE 1 A NIL 1
