@<TRIPOS>MOLECULE
NIL
147 156 4 0 0
POLYMER
CHARGES


@<TRIPOS>ATOM
1 C_2248 159.18 139.116 -1.63919 C.2 1 NIL_1    0.000
2 C_2226 159.706 140.320 -1.892 C.2 1 NIL_1    0.000
3 C_2249 159.969 138.068 -1.392 C.2 1 NIL_1    0.000
4 C_2225 158.815 141.518 -2.168 C.3 1 NIL_1    0.000
5 C_2252 161.037 140.455 -1.897 C.2 1 NIL_1    0.000
6 C_2250 161.295 138.215 -1.399 C.2 1 NIL_1    0.000
7 N 158.009 142.059 -1.054 N.am 1 NIL_1    0.000
8 C_2251 161.828 139.410 -1.652 C.2 1 NIL_1    0.000
9 C_2211 156.887 142.790 -1.258 C.2 1 NIL_1    0.000
10 C_2213 158.298 141.936 0.267 C.2 1 NIL_1    0.000
11 BQ 156.287 143.139 0.087 C.3 1 NIL_1    0.000
12 O 156.445 143.106 -2.346 O.2 1 NIL_1    0.000
13 N 157.311 142.549 0.951 N.am 1 NIL_1    0.000
14 O 159.265 141.390 0.762 O.2 1 NIL_1    0.000
15 C_2174 156.065 144.655 0.241 C.3 1 NIL_1    0.000
16 C_2176 154.878 142.543 0.201 C.3 1 NIL_1    0.000
17 C_2357 157.221 142.706 2.414 C.3 1 NIL_1    0.000
18 N 154.667 144.936 -0.122 N.am 1 NIL_1    0.000
19 BP 153.965 143.652 -0.362 C.3 1 NIL_1    0.000
20 C_2359 158.396 143.463 3.001 C.2 1 NIL_1    0.000
21 C_2194 152.570 143.520 0.246 C.2 1 NIL_1    0.000
22 OH 158.315 144.757 2.844 O.3 1 NIL_1    0.000
23 O 159.323 142.925 3.573 O.2 1 NIL_1    0.000
24 O 152.318 144.014 1.330 O.2 1 NIL_1    0.000
25 HP 153.892 143.550 -1.447 H 1 NIL_1    0.000
26 H_23571 157.204 141.715 2.876 H 1 NIL_1    0.000
27 H_23572 156.306 143.237 2.688 H 1 NIL_1    0.000
28 H_21761 154.634 142.359 1.250 H 1 NIL_1    0.000
29 H_21762 154.773 141.602 -0.345 H 1 NIL_1    0.000
30 H_21741 156.207 144.966 1.278 H 1 NIL_1    0.000
31 H_21742 156.749 145.215 -0.402 H 1 NIL_1    0.000
32 H_2251 162.909 139.534 -1.658 H 1 NIL_1    0.000
33 H_2250 161.939 137.363 -1.197 H 1 NIL_1    0.000
34 H_2252 161.484 141.425 -2.101 H 1 NIL_1    0.000
35 H_22251 159.425 142.339 -2.553 H 1 NIL_1    0.000
36 H_22252 158.126 141.234 -2.969 H 1 NIL_1    0.000
37 H_2249 159.533 137.094 -1.186 H 1 NIL_1    0.000
38 H_2248 158.100 138.985 -1.629 H 1 NIL_1    0.000
39 HH 159.096 145.154 3.270 H 1 NIL_1    0.000
40 C_2246 140.210 140.421 -1.458 C.2 2 NIL_2    0.000
41 C_2245 139.897 139.283 -0.837 C.2 2 NIL_2    0.000
42 C_2247 141.489 140.720 -1.691 C.2 2 NIL_2    0.000
43 C_2244 140.862 138.451 -0.449 C.2 2 NIL_2    0.000
44 C_2228 142.467 139.900 -1.292 C.2 2 NIL_2    0.000
45 C_2243 142.140 138.763 -0.668 C.2 2 NIL_2    0.000
46 C_2227 143.922 140.260 -1.532 C.3 2 NIL_2    0.000
47 N 144.467 141.352 -0.699 N.am 2 NIL_2    0.000
48 C_2207 145.411 142.219 -1.139 C.2 2 NIL_2    0.000
49 C_2209 144.160 141.558 0.605 C.2 2 NIL_2    0.000
50 AQ 145.817 143.116 0.013 C.3 2 NIL_2    0.000
51 O 145.870 142.247 -2.266 O.2 2 NIL_2    0.000
52 N 144.893 142.606 1.026 N.am 2 NIL_2    0.000
53 O 143.377 140.925 1.287 O.2 2 NIL_2    0.000
54 C_2186 147.308 142.908 0.324 C.3 2 NIL_2    0.000
55 C_2188 145.721 144.610 -0.349 C.3 2 NIL_2    0.000
56 C_2351 144.855 143.212 2.365 C.3 2 NIL_2    0.000
57 N 148.035 143.878 -0.505 N.am 2 NIL_2    0.000
58 AP 147.094 144.912 -0.990 C.3 2 NIL_2    0.000
59 C_2355 143.665 144.126 2.573 C.2 2 NIL_2    0.000
60 C_2204 147.613 146.311 -0.661 C.2 2 NIL_2    0.000
61 OH 143.648 144.664 3.762 O.3 2 NIL_2    0.000
62 O 142.812 144.348 1.735 O.2 2 NIL_2    0.000
63 O 147.894 146.611 0.484 O.2 2 NIL_2    0.000
64 HP 147.016 144.784 -2.071 H 2 NIL_2    0.000
65 H_23511 145.759 143.799 2.544 H 2 NIL_2    0.000
66 H_23512 144.797 142.420 3.118 H 2 NIL_2    0.000
67 H_21881 145.587 145.207 0.555 H 2 NIL_2    0.000
68 H_21882 144.891 144.823 -1.027 H 2 NIL_2    0.000
69 H_21861 147.520 143.123 1.374 H 2 NIL_2    0.000
70 H_21862 147.612 141.884 0.089 H 2 NIL_2    0.000
71 H_22271 144.549 139.381 -1.358 H 2 NIL_2    0.000
72 H_22272 144.034 140.534 -2.585 H 2 NIL_2    0.000
73 H_2243 142.920 138.080 -0.341 H 2 NIL_2    0.000
74 H_2244 140.610 137.520 0.057 H 2 NIL_2    0.000
75 H_2247 141.733 141.642 -2.211 H 2 NIL_2    0.000
76 H_2245 138.855 139.036 -0.653 H 2 NIL_2    0.000
77 H_2246 139.422 141.099 -1.777 H 2 NIL_2    0.000
78 HH 142.864 145.240 3.808 H 2 NIL_2    0.000
79 C_2361 151.321 153.255 1.884 C.3 3 NIL_3    0.000
80 N 151.441 153.414 0.426 N.am 3 NIL_3    0.000
81 C_2367 150.030 153.816 2.446 C.2 3 NIL_3    0.000
82 C_2217 151.803 154.535 -0.228 C.2 3 NIL_3    0.000
83 CQ 151.122 152.298 -0.469 C.3 3 NIL_3    0.000
84 OH 149.944 153.678 3.742 O.3 3 NIL_3    0.000
85 O 149.145 154.315 1.779 O.2 3 NIL_3    0.000
86 N 151.672 154.286 -1.553 N.am 3 NIL_3    0.000
87 O 152.167 155.575 0.287 O.2 3 NIL_3    0.000
88 C_2177 149.742 151.633 -0.291 C.3 3 NIL_3    0.000
89 C_2179 152.106 151.121 -0.432 C.3 3 NIL_3    0.000
90 C_2215 151.247 153.023 -1.792 C.2 3 NIL_3    0.000
91 C_2229 152.009 155.252 -2.617 C.3 3 NIL_3    0.000
92 N 149.866 150.237 -0.747 N.am 3 NIL_3    0.000
93 CP 151.297 149.944 -1.015 C.3 3 NIL_3    0.000
94 O 151.026 152.551 -2.892 O.2 3 NIL_3    0.000
95 C_2230 151.500 156.667 -2.406 C.2 3 NIL_3    0.000
96 C_2202 148.788 149.431 -0.973 C.2 3 NIL_3    0.000
97 C_2199 151.816 148.621 -0.448 C.2 3 NIL_3    0.000
98 C_2253 150.192 156.909 -2.257 C.2 3 NIL_3    0.000
99 C_2257 152.358 157.693 -2.366 C.2 3 NIL_3    0.000
100 O 147.663 149.802 -0.697 O.2 3 NIL_3    0.000
101 C_2201 149.032 148.071 -1.611 C.3 3 NIL_3    0.000
102 O 151.617 148.334 0.719 O.2 3 NIL_3    0.000
103 N 152.475 147.762 -1.281 N.am 3 NIL_3    0.000
104 C_2254 149.748 158.155 -2.072 C.2 3 NIL_3    0.000
105 C_2256 151.916 158.940 -2.192 C.2 3 NIL_3    0.000
106 N 147.865 147.174 -1.685 N.am 3 NIL_3    0.000
107 C_2190 152.800 146.375 -0.887 C.3 3 NIL_3    0.000
108 C_2232 152.776 148.026 -2.700 C.3 3 NIL_3    0.000
109 C_2255 150.611 159.171 -2.046 C.2 3 NIL_3    0.000
110 C_2233 147.333 147.053 -3.051 C.3 3 NIL_3    0.000
111 C_2191 154.201 146.202 -0.315 C.2 3 NIL_3    0.000
112 O 154.896 147.165 -0.051 O.2 3 NIL_3    0.000
113 H_22331 146.297 146.707 -3.016 H 3 NIL_3    0.000
114 H_22332 147.939 146.342 -3.619 H 3 NIL_3    0.000
115 H_22333 147.358 148.027 -3.547 H 3 NIL_3    0.000
116 H_2255 150.250 160.187 -1.905 H 3 NIL_3    0.000
117 H_22321 153.322 148.968 -2.790 H 3 NIL_3    0.000
118 H_22322 151.838 148.092 -3.259 H 3 NIL_3    0.000
119 H_22323 153.391 147.229 -3.125 H 3 NIL_3    0.000
120 H_21901 152.705 145.710 -1.752 H 3 NIL_3    0.000
121 H_21902 152.085 146.049 -0.131 H 3 NIL_3    0.000
122 H_2256 152.623 159.767 -2.164 H 3 NIL_3    0.000
123 H_2254 148.685 158.345 -1.953 H 3 NIL_3    0.000
124 H_22011 149.452 148.239 -2.607 H 3 NIL_3    0.000
125 H_22012 149.773 147.542 -1.017 H 3 NIL_3    0.000
126 H_2257 153.425 157.517 -2.481 H 3 NIL_3    0.000
127 H_2253 149.479 156.088 -2.292 H 3 NIL_3    0.000
128 HP 151.404 149.956 -2.100 H 3 NIL_3    0.000
129 H_22291 151.608 154.889 -3.567 H 3 NIL_3    0.000
130 H_22292 153.099 155.259 -2.709 H 3 NIL_3    0.000
131 H_21791 152.393 150.912 0.601 H 3 NIL_3    0.000
132 H_21792 153.014 151.315 -1.007 H 3 NIL_3    0.000
133 H_21771 149.454 151.618 0.762 H 3 NIL_3    0.000
134 H_21772 148.977 152.160 -0.867 H 3 NIL_3    0.000
135 H_23611 152.147 153.776 2.377 H 3 NIL_3    0.000
136 H_23612 151.368 152.197 2.155 H 3 NIL_3    0.000
137 HH 149.086 154.047 4.016 H 3 NIL_3    0.000
138 C_2196 150.202 142.799 -0.054 C.3 4 NIL_4    0.000
139 N 151.626 142.822 -0.450 N.am 4 NIL_4    0.000
140 C_2205 149.369 143.854 -0.772 C.2 4 NIL_4    0.000
141 C_2231 151.856 142.122 -1.730 C.3 4 NIL_4    0.000
142 O 149.873 144.648 -1.544 O.2 4 NIL_4    0.000
143 H_22311 152.842 141.652 -1.735 H 4 NIL_4    0.000
144 H_22312 151.790 142.841 -2.552 H 4 NIL_4    0.000
145 H_22313 151.106 141.340 -1.881 H 4 NIL_4    0.000
146 H_21961 150.102 142.974 1.021 H 4 NIL_4    0.000
147 H_21962 149.775 141.818 -0.283 H 4 NIL_4    0.000
@<TRIPOS>BOND
1 1 2 2 
2 1 3 1 
3 1 38 1 
4 2 4 1 
5 2 5 1 
6 3 37 1 
7 4 7 1 
8 4 35 1 
9 4 36 1 
10 5 8 2 
11 5 34 1 
12 6 3 2 
13 6 33 1 
14 7 9 1 
15 8 6 1 
16 8 32 1 
17 9 11 1 
18 10 7 1 
19 11 15 1 
20 12 9 2 
21 13 10 1 
22 13 11 1 
23 13 17 1 
24 14 10 2 
25 16 11 1 
26 17 26 1 
27 17 27 1 
28 18 15 1 
29 19 16 1 
30 19 18 1 
31 20 17 1 
32 20 23 2 
33 21 19 1 
34 22 20 1 
35 22 39 1 
36 24 21 2 
37 25 19 1 
38 28 16 1 
39 29 16 1 
40 30 15 1 
41 31 15 1 
42 40 41 1 
43 40 77 1 
44 41 43 2 
45 41 76 1 
46 42 40 2 
47 42 44 1 
48 42 75 1 
49 43 45 1 
50 43 74 1 
51 44 46 1 
52 45 44 2 
53 45 73 1 
54 46 47 1 
55 46 71 1 
56 46 72 1 
57 47 48 1 
58 49 47 1 
59 50 54 1 
60 50 48 1 
61 50 52 1 
62 51 48 2 
63 52 49 1 
64 52 56 1 
65 53 49 2 
66 54 69 1 
67 54 70 1 
68 55 50 1 
69 55 67 1 
70 55 68 1 
71 56 65 1 
72 56 66 1 
73 57 54 1 
74 57 140 1 
75 58 55 1 
76 58 57 1 
77 58 60 1 
78 58 64 1 
79 59 56 1 
80 59 61 1 
81 59 62 2 
82 60 106 1 
83 61 78 1 
84 63 60 2 
85 79 135 1 
86 79 136 1 
87 80 82 1 
88 80 83 1 
89 80 79 1 
90 81 79 1 
91 82 86 1 
92 83 88 1 
93 84 81 1 
94 84 137 1 
95 85 81 2 
96 86 90 1 
97 87 82 2 
98 89 83 1 
99 89 131 1 
100 89 132 1 
101 90 83 1 
102 91 86 1 
103 91 129 1 
104 91 130 1 
105 92 88 1 
106 93 89 1 
107 93 92 1 
108 93 128 1 
109 94 90 2 
110 95 91 1 
111 95 98 2 
112 95 99 1 
113 96 92 1 
114 96 101 1 
115 97 103 1 
116 97 93 1 
117 98 127 1 
118 99 105 2 
119 99 126 1 
120 100 96 2 
121 101 106 1 
122 101 124 1 
123 101 125 1 
124 102 97 2 
125 104 98 1 
126 104 123 1 
127 105 109 1 
128 105 122 1 
129 107 103 1 
130 107 120 1 
131 107 121 1 
132 108 103 1 
133 108 117 1 
134 108 118 1 
135 108 119 1 
136 109 104 2 
137 109 116 1 
138 110 106 1 
139 110 113 1 
140 110 114 1 
141 110 115 1 
142 111 107 1 
143 111 18 1 
144 112 111 2 
145 133 88 1 
146 134 88 1 
147 138 139 1 
148 138 140 1 
149 138 146 1 
150 138 147 1 
151 139 21 1 
152 141 139 1 
153 141 143 1 
154 141 144 1 
155 141 145 1 
156 142 140 2 
@<TRIPOS>SUBSTRUCTURE
1 NIL_1 1 RESIDUE 1 A NIL 1
2 NIL_2 40 RESIDUE 1 A NIL 1
3 NIL_3 79 RESIDUE 1 A NIL 1
4 NIL_4 138 RESIDUE 1 A NIL 1
