@<TRIPOS>MOLECULE
NIL
174 183 1 0 0
POLYMER
CHARGES


@<TRIPOS>ATOM
1 C_2457 136.376 142.952 -1.54209 C.3 1 NIL_1    0.000
2 C_2455 136.563 143.506 -0.103 C.3 1 NIL_1    0.000
3 C_2459 135.353 143.810 -2.312 C.3 1 NIL_1    0.000
4 C_2461 135.940 141.470 -1.548 C.3 1 NIL_1    0.000
5 C_2201 137.821 142.932 0.616 C.3 1 NIL_1    0.000
6 NH 137.334 142.381 1.906 N.am 1 NIL_1    0.000
7 C_2202 138.966 143.926 0.919 C.2 1 NIL_1    0.000
8 C_2204 137.226 141.104 2.346 C.2 1 NIL_1    0.000
9 O 139.320 144.033 2.081 O.2 1 NIL_1    0.000
10 N 139.643 144.656 -0.036 N.am 1 NIL_1    0.000
11 O 136.782 140.918 3.461 O.2 1 NIL_1    0.000
12 C_2203 137.689 139.937 1.483 C.3 1 NIL_1    0.000
13 C_2177 140.558 145.731 0.413 C.3 1 NIL_1    0.000
14 C_2198 139.158 145.096 -1.376 C.3 1 NIL_1    0.000
15 C_2188 136.565 138.888 1.323 C.3 1 NIL_1    0.000
16 N 138.891 139.260 2.007 N.am 1 NIL_1    0.000
17 C_2178 139.993 147.029 -0.169 C.3 1 NIL_1    0.000
18 C_2179 139.515 146.592 -1.561 C.3 1 NIL_1    0.000
19 C_2199 139.451 144.315 -2.665 C.2 1 NIL_1    0.000
20 C_2187 137.249 137.513 1.464 C.3 1 NIL_1    0.000
21 C_2186 138.697 137.803 1.917 C.3 1 NIL_1    0.000
22 C_2205 140.059 139.895 2.319 C.2 1 NIL_1    0.000
23 C_2215 138.854 147.520 0.705 C.2 1 NIL_1    0.000
24 N 140.867 148.199 -0.075 N.am 1 NIL_1    0.000
25 O 138.737 144.526 -3.625 O.2 1 NIL_1    0.000
26 NH 140.383 143.338 -2.815 N.am 1 NIL_1    0.000
27 C_2207 137.223 136.748 0.155 C.2 1 NIL_1    0.000
28 N 136.525 136.542 2.295 N.am 1 NIL_1    0.000
29 O 140.131 141.109 2.347 O.2 1 NIL_1    0.000
30 C_2196 141.306 139.047 2.581 C.3 1 NIL_1    0.000
31 N 139.196 148.720 1.228 N.am 1 NIL_1    0.000
32 O 137.812 146.934 0.931 O.2 1 NIL_1    0.000
33 C_2217 140.400 149.144 0.763 C.2 1 NIL_1    0.000
34 C_2361 142.197 148.197 -0.711 C.3 1 NIL_1    0.000
35 C_2190 141.748 143.192 -2.283 C.3 1 NIL_1    0.000
36 N 136.570 135.577 0.349 N.am 1 NIL_1    0.000
37 O 137.696 137.122 -0.901 O.2 1 NIL_1    0.000
38 C_2209 136.143 135.439 1.623 C.2 1 NIL_1    0.000
39 C_2351 136.284 136.814 3.726 C.3 1 NIL_1    0.000
40 NH 142.549 139.707 2.139 N.am 1 NIL_1    0.000
41 C_2471 141.375 138.605 4.070 C.3 1 NIL_1    0.000
42 C_2229 138.395 149.372 2.286 C.3 1 NIL_1    0.000
43 O 140.984 150.171 1.052 O.2 1 NIL_1    0.000
44 C_2367 143.316 147.739 0.205 C.2 1 NIL_1    0.000
45 C_2191 141.830 142.258 -1.081 C.2 1 NIL_1    0.000
46 C_2463 142.636 144.466 -2.184 C.3 1 NIL_1    0.000
47 C_2227 136.331 134.569 -0.699 C.3 1 NIL_1    0.000
48 O 135.529 134.495 2.082 O.2 1 NIL_1    0.000
49 C_2355 136.888 135.778 4.655 C.2 1 NIL_1    0.000
50 C_2194 142.872 140.127 0.889 C.2 1 NIL_1    0.000
51 C_2475 141.364 139.754 5.122 C.3 1 NIL_1    0.000
52 C_2230 138.609 150.854 2.530 C.2 1 NIL_1    0.000
53 OH 144.477 147.738 -0.395 O.3 1 NIL_1    0.000
54 O 143.177 147.436 1.373 O.2 1 NIL_1    0.000
55 O 141.882 142.706 0.047 O.2 1 NIL_1    0.000
56 N 141.848 140.909 -1.313 N.am 1 NIL_1    0.000
57 C_2465 143.447 144.736 -3.481 C.3 1 NIL_1    0.000
58 C_2228 135.039 134.838 -1.448 C.2 1 NIL_1    0.000
59 OH 136.316 135.754 5.831 O.3 1 NIL_1    0.000
60 O 137.801 135.035 4.354 O.2 1 NIL_1    0.000
61 O 143.950 140.657 0.706 O.2 1 NIL_1    0.000
62 C_2193 141.908 139.864 -0.268 C.3 1 NIL_1    0.000
63 C_2477 142.736 140.452 5.249 C.3 1 NIL_1    0.000
64 C_2479 140.932 139.200 6.499 C.3 1 NIL_1    0.000
65 C_2253 137.976 151.759 1.777 C.2 1 NIL_1    0.000
66 C_2257 139.441 151.277 3.489 C.2 1 NIL_1    0.000
67 C_2174 141.582 140.230 -2.594 C.3 1 NIL_1    0.000
68 C_2467 144.573 145.760 -3.225 C.3 1 NIL_1    0.000
69 C_2469 142.541 145.217 -4.636 C.3 1 NIL_1    0.000
70 C_2243 133.875 134.340 -1.014 C.2 1 NIL_1    0.000
71 C_2247 135.048 135.583 -2.559 C.2 1 NIL_1    0.000
72 C_2176 142.255 138.528 -0.942 C.3 1 NIL_1    0.000
73 C_2254 138.175 153.065 1.973 C.2 1 NIL_1    0.000
74 C_2256 139.644 152.582 3.685 C.2 1 NIL_1    0.000
75 C_2175 142.068 138.775 -2.449 C.3 1 NIL_1    0.000
76 C_2244 132.741 134.589 -1.673 C.2 1 NIL_1    0.000
77 C_2246 133.916 135.833 -3.220 C.2 1 NIL_1    0.000
78 C_2255 139.010 153.476 2.927 C.2 1 NIL_1    0.000
79 C_2211 141.121 137.766 -3.052 C.2 1 NIL_1    0.000
80 N 143.263 138.479 -3.244 N.am 1 NIL_1    0.000
81 C_2245 132.761 135.337 -2.776 C.2 1 NIL_1    0.000
82 N 141.805 137.035 -3.962 N.am 1 NIL_1    0.000
83 O 139.948 137.623 -2.762 O.2 1 NIL_1    0.000
84 C_2213 143.076 137.475 -4.120 C.2 1 NIL_1    0.000
85 C_2357 144.431 139.375 -3.143 C.3 1 NIL_1    0.000
86 C_2225 141.255 135.860 -4.659 C.3 1 NIL_1    0.000
87 O 143.895 137.057 -4.916 O.2 1 NIL_1    0.000
88 C_2359 145.754 138.662 -2.960 C.2 1 NIL_1    0.000
89 C_2226 141.924 134.601 -4.141 C.2 1 NIL_1    0.000
90 OH 146.004 138.341 -1.718 O.3 1 NIL_1    0.000
91 O 146.572 138.531 -3.848 O.2 1 NIL_1    0.000
92 C_2248 141.503 134.018 -3.014 C.2 1 NIL_1    0.000
93 C_2252 142.964 134.068 -4.793 C.2 1 NIL_1    0.000
94 C_2249 142.112 132.926 -2.545 C.2 1 NIL_1    0.000
95 C_2251 143.577 132.980 -4.326 C.2 1 NIL_1    0.000
96 C_2250 143.152 132.409 -3.199 C.2 1 NIL_1    0.000
97 H_2250 143.653 131.523 -2.815 H 1 NIL_1    0.000
98 H_2251 144.427 132.562 -4.863 H 1 NIL_1    0.000
99 H_2249 141.763 132.460 -1.626 H 1 NIL_1    0.000
100 H_2252 143.324 134.526 -5.710 H 1 NIL_1    0.000
101 H_2248 140.661 134.437 -2.466 H 1 NIL_1    0.000
102 H_22251 141.433 135.972 -5.732 H 1 NIL_1    0.000
103 H_22252 140.174 135.802 -4.497 H 1 NIL_1    0.000
104 H_23571 144.309 140.056 -2.297 H 1 NIL_1    0.000
105 H_23572 144.499 139.968 -4.059 H 1 NIL_1    0.000
106 H_2245 131.838 135.542 -3.313 H 1 NIL_1    0.000
107 H_2255 139.175 154.539 3.085 H 1 NIL_1    0.000
108 H_2246 133.936 136.442 -4.120 H 1 NIL_1    0.000
109 H_2244 131.799 134.182 -1.311 H 1 NIL_1    0.000
110 H_2256 140.331 152.915 4.460 H 1 NIL_1    0.000
111 H_2254 137.659 153.791 1.351 H 1 NIL_1    0.000
112 H_21761 143.286 138.239 -0.723 H 1 NIL_1    0.000
113 H_21762 141.604 137.734 -0.568 H 1 NIL_1    0.000
114 H_2247 135.984 135.993 -2.930 H 1 NIL_1    0.000
115 H_2243 133.843 133.728 -0.115 H 1 NIL_1    0.000
116 H_24691 141.973 146.102 -4.342 H 1 NIL_1    0.000
117 H_24692 141.840 144.435 -4.933 H 1 NIL_1    0.000
118 H_24693 143.141 145.473 -5.511 H 1 NIL_1    0.000
119 H_24671 145.224 145.417 -2.418 H 1 NIL_1    0.000
120 H_24672 144.167 146.737 -2.958 H 1 NIL_1    0.000
121 H_24673 145.190 145.877 -4.119 H 1 NIL_1    0.000
122 H_21741 142.100 140.705 -3.430 H 1 NIL_1    0.000
123 H_21742 140.505 140.259 -2.785 H 1 NIL_1    0.000
124 H_2257 139.970 150.557 4.110 H 1 NIL_1    0.000
125 H_2253 137.297 151.434 0.992 H 1 NIL_1    0.000
126 H_24791 139.924 138.780 6.442 H 1 NIL_1    0.000
127 H_24792 140.920 140.000 7.243 H 1 NIL_1    0.000
128 H_24793 141.611 138.418 6.844 H 1 NIL_1    0.000
129 H_24771 143.011 140.956 4.322 H 1 NIL_1    0.000
130 H_24772 143.517 139.729 5.500 H 1 NIL_1    0.000
131 H_24773 142.706 141.217 6.029 H 1 NIL_1    0.000
132 H_2193 140.891 139.780 0.099 H 1 NIL_1    0.000
133 H_2465 143.937 143.810 -3.792 H 1 NIL_1    0.000
134 H_2475 140.624 140.505 4.844 H 1 NIL_1    0.000
135 H_22271 136.288 133.579 -0.236 H 1 NIL_1    0.000
136 H_22272 137.175 134.564 -1.394 H 1 NIL_1    0.000
137 H_24631 143.344 144.342 -1.362 H 1 NIL_1    0.000
138 H_24632 142.037 145.339 -1.954 H 1 NIL_1    0.000
139 H_22291 138.585 148.829 3.218 H 1 NIL_1    0.000
140 H_22292 137.340 149.218 2.045 H 1 NIL_1    0.000
141 H_24711 142.263 137.985 4.219 H 1 NIL_1    0.000
142 H_24712 140.524 137.952 4.266 H 1 NIL_1    0.000
143 H_23511 135.204 136.819 3.900 H 1 NIL_1    0.000
144 H_23512 136.693 137.787 4.012 H 1 NIL_1    0.000
145 H_2190 142.253 142.633 -3.067 H 1 NIL_1    0.000
146 H_23611 142.440 149.214 -1.028 H 1 NIL_1    0.000
147 H_23612 142.204 147.551 -1.590 H 1 NIL_1    0.000
148 H_2196 141.229 138.142 1.973 H 1 NIL_1    0.000
149 H_21861 138.884 137.357 2.895 H 1 NIL_1    0.000
150 H_21862 139.404 137.386 1.195 H 1 NIL_1    0.000
151 H_21791 140.307 146.705 -2.302 H 1 NIL_1    0.000
152 H_21792 138.656 147.173 -1.904 H 1 NIL_1    0.000
153 H_21881 135.801 139.010 2.094 H 1 NIL_1    0.000
154 H_21882 136.064 139.002 0.359 H 1 NIL_1    0.000
155 H_2198 138.078 145.099 -1.326 H 1 NIL_1    0.000
156 H_21771 141.561 145.532 0.043 H 1 NIL_1    0.000
157 H_21772 140.625 145.829 1.499 H 1 NIL_1    0.000
158 H_2203 137.957 140.295 0.493 H 1 NIL_1    0.000
159 H_2201 138.276 142.156 0.001 H 1 NIL_1    0.000
160 H_24611 135.047 141.314 -0.939 H 1 NIL_1    0.000
161 H_24612 136.739 140.835 -1.169 H 1 NIL_1    0.000
162 H_24613 135.726 141.140 -2.567 H 1 NIL_1    0.000
163 H_24591 135.721 144.832 -2.422 H 1 NIL_1    0.000
164 H_24592 134.397 143.841 -1.784 H 1 NIL_1    0.000
165 H_24593 135.183 143.405 -3.312 H 1 NIL_1    0.000
166 H_24551 136.581 144.596 -0.089 H 1 NIL_1    0.000
167 H_24552 135.658 143.255 0.457 H 1 NIL_1    0.000
168 H_2457 137.321 143.000 -2.074 H 1 NIL_1    0.000
169 HH 143.231 139.871 2.865 H 1 NIL_1    0.000
170 HH 140.258 142.783 -3.649 H 1 NIL_1    0.000
171 HH 136.998 143.089 2.544 H 1 NIL_1    0.000
172 HH 146.900 137.958 -1.693 H 1 NIL_1    0.000
173 HH 135.610 136.426 5.830 H 1 NIL_1    0.000
174 HH 145.143 147.445 0.253 H 1 NIL_1    0.000
@<TRIPOS>BOND
1 1 2 1 
2 1 168 1 
3 2 5 1 
4 2 166 1 
5 2 167 1 
6 3 1 1 
7 3 163 1 
8 3 164 1 
9 3 165 1 
10 4 1 1 
11 4 160 1 
12 4 161 1 
13 4 162 1 
14 5 6 1 
15 5 7 1 
16 5 159 1 
17 6 8 1 
18 6 171 1 
19 7 10 1 
20 9 7 2 
21 10 13 1 
22 11 8 2 
23 12 15 1 
24 12 16 1 
25 12 8 1 
26 12 158 1 
27 14 18 1 
28 14 10 1 
29 15 20 1 
30 15 153 1 
31 15 154 1 
32 16 21 1 
33 16 22 1 
34 17 13 1 
35 18 17 1 
36 19 14 1 
37 20 21 1 
38 21 149 1 
39 21 150 1 
40 23 17 1 
41 24 33 1 
42 24 17 1 
43 25 19 2 
44 26 19 1 
45 26 170 1 
46 27 20 1 
47 28 38 1 
48 28 20 1 
49 29 22 2 
50 30 40 1 
51 30 22 1 
52 30 148 1 
53 31 23 1 
54 32 23 2 
55 33 31 1 
56 34 24 1 
57 34 146 1 
58 34 147 1 
59 35 26 1 
60 35 45 1 
61 35 145 1 
62 36 27 1 
63 36 38 1 
64 37 27 2 
65 39 28 1 
66 39 143 1 
67 39 144 1 
68 40 50 1 
69 40 169 1 
70 41 30 1 
71 41 141 1 
72 41 142 1 
73 42 31 1 
74 42 139 1 
75 42 140 1 
76 43 33 2 
77 44 34 1 
78 46 35 1 
79 46 137 1 
80 46 138 1 
81 47 36 1 
82 47 135 1 
83 47 136 1 
84 48 38 2 
85 49 39 1 
86 50 62 1 
87 51 41 1 
88 51 63 1 
89 51 64 1 
90 51 134 1 
91 52 42 1 
92 52 65 2 
93 52 66 1 
94 53 44 1 
95 53 174 1 
96 54 44 2 
97 55 45 2 
98 56 67 1 
99 56 45 1 
100 56 62 1 
101 57 46 1 
102 57 133 1 
103 58 47 1 
104 58 71 1 
105 59 49 1 
106 59 173 1 
107 60 49 2 
108 61 50 2 
109 63 129 1 
110 63 130 1 
111 63 131 1 
112 64 126 1 
113 64 127 1 
114 64 128 1 
115 65 125 1 
116 66 74 2 
117 66 124 1 
118 67 122 1 
119 67 123 1 
120 68 57 1 
121 68 119 1 
122 68 120 1 
123 68 121 1 
124 69 57 1 
125 69 116 1 
126 69 117 1 
127 69 118 1 
128 70 58 2 
129 70 115 1 
130 71 77 2 
131 71 114 1 
132 72 75 1 
133 72 62 1 
134 72 112 1 
135 72 113 1 
136 73 65 1 
137 73 111 1 
138 74 78 1 
139 74 110 1 
140 75 67 1 
141 76 70 1 
142 76 109 1 
143 77 108 1 
144 78 73 2 
145 78 107 1 
146 79 75 1 
147 80 84 1 
148 80 75 1 
149 81 76 2 
150 81 77 1 
151 81 106 1 
152 82 79 1 
153 83 79 2 
154 84 82 1 
155 85 80 1 
156 85 104 1 
157 85 105 1 
158 86 82 1 
159 86 102 1 
160 86 103 1 
161 87 84 2 
162 88 85 1 
163 89 86 1 
164 89 92 2 
165 89 93 1 
166 90 88 1 
167 90 172 1 
168 91 88 2 
169 92 101 1 
170 93 95 2 
171 93 100 1 
172 94 92 1 
173 94 99 1 
174 95 96 1 
175 95 98 1 
176 96 94 2 
177 96 97 1 
178 132 62 1 
179 151 18 1 
180 152 18 1 
181 155 14 1 
182 156 13 1 
183 157 13 1 
@<TRIPOS>SUBSTRUCTURE
1 NIL_1 1 RESIDUE 1 A NIL 1
