@<TRIPOS>MOLECULE
NIL
   34    33     1     0     0
SMALL
bcc


@<TRIPOS>ATOM
      1 C8        159.3630  120.2310   -0.4630 c3        1 NIL      0.078300
      2 N1        157.9000  120.1680   -0.2930 n         1 NIL     -0.476800
      3 C9        157.3700  118.9460   -0.9320 c3        1 NIL      0.076300
      4 C         157.1200  121.0710    0.3590 c         1 NIL      0.636100
      5 O         155.9200  120.9030    0.4330 o         1 NIL     -0.612100
      6 C1        157.7730  122.2790    1.0200 c3        1 NIL      0.027000
      7 N         157.1930  123.5560    0.5510 n         1 NIL     -0.460800
      8 C6        155.9760  124.0000    0.9950 c         1 NIL      0.665100
      9 C2        158.0320  124.1950   -0.4920 c3        1 NIL      0.091000
     10 C7        155.3040  125.1850    0.2980 c3        1 NIL     -0.168100
     11 O1        155.4340  123.4680    1.9450 o         1 NIL     -0.615100
     12 C3        159.0090  125.2700    0.0560 c3        1 NIL     -0.086700
     13 C4        159.4290  126.2110   -1.0920 c3        1 NIL     -0.093100
     14 C5        160.2560  124.6600    0.7350 c3        1 NIL     -0.090100
     15 H51       159.9730  124.0700    1.6090 hc        1 NIL      0.036700
     16 H52       160.9210  125.4560    1.0840 hc        1 NIL      0.036700
     17 H53       160.8130  124.0250    0.0420 hc        1 NIL      0.033700
     18 H41       160.1090  126.9860   -0.7300 hc        1 NIL      0.038700
     19 H42       158.5520  126.7040   -1.5200 hc        1 NIL      0.033700
     20 H43       159.9300  125.6520   -1.8860 hc        1 NIL      0.039700
     21 H31       158.4980  125.8670    0.8110 hc        1 NIL      0.049700
     22 H71       155.5760  125.1780   -0.7570 hc        1 NIL      0.067700
     23 H21       157.3930  124.6470   -1.2510 h1        1 NIL      0.049700
     24 H22       158.6110  123.4280   -1.0180 h1        1 NIL      0.074700
     25 H11       157.6170  122.1820    2.0970 h1        1 NIL      0.101700
     26 H12       158.8480  122.2700    0.8410 h1        1 NIL      0.068700
     27 H91       156.5350  119.2060   -1.5850 h1        1 NIL      0.079700
     28 H82       159.8620  120.3730    0.5000 h1        1 NIL      0.036700
     29 H83       159.5930  121.0720   -1.1230 h1        1 NIL      0.035700
     30 H81       159.7140  119.3060   -0.9200 h1        1 NIL      0.049700
     31 H92       157.0270  118.2540   -0.1630 h1        1 NIL      0.027700
     32 H93       158.1570  118.4730   -1.5200 h1        1 NIL      0.031700
     33 H72       155.6400  126.1160    0.7550 hc        1 NIL      0.060700
     34 H73       154.2220  125.1000    0.3960 hc        1 NIL      0.075700
@<TRIPOS>BOND
     1    1   28 1   
     2    1   29 1   
     3    2    1 1   
     4    2    3 1   
     5    3   27 1   
     6    4    2 1   
     7    5    4 2   
     8    6    7 1   
     9    6    4 1   
    10    6   25 1   
    11    6   26 1   
    12    7    8 1   
    13    8   10 1   
    14    9    7 1   
    15    9   23 1   
    16    9   24 1   
    17   10   22 1   
    18   11    8 2   
    19   12    9 1   
    20   12   21 1   
    21   13   12 1   
    22   13   18 1   
    23   13   19 1   
    24   13   20 1   
    25   14   12 1   
    26   14   15 1   
    27   14   16 1   
    28   14   17 1   
    29   30    1 1   
    30   31    3 1   
    31   32    3 1   
    32   33   10 1   
    33   34   10 1   
@<TRIPOS>SUBSTRUCTURE
     1 NIL         1 TEMP              0 ****  ****    0 ROOT
