@<TRIPOS>MOLECULE
NIL
165 174 1 0 0
POLYMER
CHARGES


@<TRIPOS>ATOM
1 N 151.564 56.6622 -0.831204 N.am 1 NIL_1    0.000
2 C_2364 150.434 56.742 0.094 C.3 1 NIL_1    0.000
3 C_2386 152.278 55.532 -0.701 C.2 1 NIL_1    0.000
4 C_2746 151.754 57.691 -1.869 C.3 1 NIL_1    0.000
5 C_2384 150.634 55.436 0.828 C.2 1 NIL_1    0.000
6 C_2365 150.452 57.917 1.088 C.3 1 NIL_1    0.000
7 C_2363 149.046 56.751 -0.573 C.3 1 NIL_1    0.000
8 O 153.232 55.226 -1.391 O.2 1 NIL_1    0.000
9 N 151.722 54.816 0.316 N.am 1 NIL_1    0.000
10 O 149.932 55.003 1.722 O.2 1 NIL_1    0.000
11 C_2380 148.962 58.243 1.311 C.3 1 NIL_1    0.000
12 N 148.174 57.623 0.222 N.am 1 NIL_1    0.000
13 C_2402 152.177 53.499 0.803 C.3 1 NIL_1    0.000
14 C_2381 148.736 59.730 1.571 C.2 1 NIL_1    0.000
15 C_2382 146.828 57.740 0.064 C.2 1 NIL_1    0.000
16 C_2403 153.631 53.184 0.524 C.2 1 NIL_1    0.000
17 N 148.719 60.632 0.541 N.am 1 NIL_1    0.000
18 O 148.514 60.087 2.714 O.2 1 NIL_1    0.000
19 C_2373 146.149 56.783 -0.909 C.3 1 NIL_1    0.000
20 O 146.188 58.562 0.690 O.2 1 NIL_1    0.000
21 C_2422 153.972 52.394 -0.500 C.2 1 NIL_1    0.000
22 C_2418 154.595 53.744 1.262 C.2 1 NIL_1    0.000
23 C_2741 149.347 60.430 -0.790 C.3 1 NIL_1    0.000
24 C_2378 148.364 62.050 0.776 C.3 1 NIL_1    0.000
25 N 144.692 56.651 -0.676 N.am 1 NIL_1    0.000
26 C_2421 155.255 52.176 -0.790 C.2 1 NIL_1    0.000
27 C_2419 155.879 53.526 0.976 C.2 1 NIL_1    0.000
28 C_2736 148.557 60.908 -2.037 C.3 1 NIL_1    0.000
29 C_2379 146.859 62.262 0.704 C.2 1 NIL_1    0.000
30 C_2743 144.389 55.590 0.320 C.3 1 NIL_1    0.000
31 C_2371 143.775 57.289 -1.462 C.2 1 NIL_1    0.000
32 C_2420 156.210 52.743 -0.052 C.2 1 NIL_1    0.000
33 C_2715 147.365 59.982 -2.349 C.3 1 NIL_1    0.000
34 C_2735 149.520 60.967 -3.241 C.3 1 NIL_1    0.000
35 N 146.385 63.339 0.020 N.am 1 NIL_1    0.000
36 O 146.100 61.487 1.255 O.2 1 NIL_1    0.000
37 C_2740 144.710 55.894 1.805 C.3 1 NIL_1    0.000
38 O 144.105 57.797 -2.519 O.2 1 NIL_1    0.000
39 C_2370 142.326 57.388 -0.983 C.3 1 NIL_1    0.000
40 C_2375 144.959 63.581 -0.287 C.3 1 NIL_1    0.000
41 C_2354 147.194 64.414 -0.571 C.3 1 NIL_1    0.000
42 C_2716 144.541 54.602 2.631 C.3 1 NIL_1    0.000
43 C_2739 143.800 56.999 2.381 C.3 1 NIL_1    0.000
44 N 141.595 58.575 -1.503 N.am 1 NIL_1    0.000
45 C_2353 141.494 56.158 -1.404 C.3 1 NIL_1    0.000
46 C_2356 144.896 64.831 -1.194 C.3 1 NIL_1    0.000
47 C_2376 144.315 62.348 -0.924 C.2 1 NIL_1    0.000
48 C_2355 146.218 65.553 -0.890 C.3 1 NIL_1    0.000
49 C_2368 141.972 59.880 -1.414 C.2 1 NIL_1    0.000
50 C_2351 140.316 58.142 -2.089 C.3 1 NIL_1    0.000
51 C_2352 140.077 56.720 -1.558 C.3 1 NIL_1    0.000
52 N 143.381 61.626 -0.233 N.am 1 NIL_1    0.000
53 O 144.694 61.971 -2.019 O.2 1 NIL_1    0.000
54 N 146.691 66.539 -1.862 N.am 1 NIL_1    0.000
55 C_2392 146.088 66.452 0.319 C.2 1 NIL_1    0.000
56 C_2367 143.174 60.194 -0.537 C.3 1 NIL_1    0.000
57 O 141.363 60.752 -2.006 O.2 1 NIL_1    0.000
58 N 139.138 55.872 -2.290 N.am 1 NIL_1    0.000
59 C_2388 139.365 56.762 -0.221 C.2 1 NIL_1    0.000
60 C_2742 142.653 62.043 0.992 C.3 1 NIL_1    0.000
61 C_2394 146.881 67.760 -1.324 C.2 1 NIL_1    0.000
62 C_2748 147.068 66.117 -3.220 C.3 1 NIL_1    0.000
63 O 145.706 66.120 1.426 O.2 1 NIL_1    0.000
64 N 146.492 67.695 -0.026 N.am 1 NIL_1    0.000
65 C_2390 138.128 55.416 -1.524 C.2 1 NIL_1    0.000
66 C_2744 139.450 55.451 -3.664 C.3 1 NIL_1    0.000
67 O 139.709 57.393 0.762 O.2 1 NIL_1    0.000
68 N 138.270 55.972 -0.296 N.am 1 NIL_1    0.000
69 C_2738 141.298 62.736 0.707 C.3 1 NIL_1    0.000
70 O 147.336 68.727 -1.905 O.2 1 NIL_1    0.000
71 C_2404 146.579 68.804 0.941 C.3 1 NIL_1    0.000
72 O 137.263 54.637 -1.875 O.2 1 NIL_1    0.000
73 C_2434 137.395 55.684 0.855 C.3 1 NIL_1    0.000
74 C_2534 141.476 64.071 -0.049 C.3 1 NIL_1    0.000
75 C_2737 140.534 62.966 2.026 C.3 1 NIL_1    0.000
76 C_2405 146.177 70.156 0.390 C.2 1 NIL_1    0.000
77 C_2433 135.917 55.836 0.558 C.2 1 NIL_1    0.000
78 C_2431 144.927 70.376 -0.031 C.2 1 NIL_1    0.000
79 C_2427 147.076 71.142 0.302 C.2 1 NIL_1    0.000
80 C_2432 135.122 54.761 0.504 C.2 1 NIL_1    0.000
81 C_2423 135.388 57.044 0.339 C.2 1 NIL_1    0.000
82 C_2430 144.582 71.562 -0.535 C.2 1 NIL_1    0.000
83 C_2428 146.734 72.328 -0.202 C.2 1 NIL_1    0.000
84 C_2426 133.823 54.890 0.232 C.2 1 NIL_1    0.000
85 C_2424 134.088 57.177 0.068 C.2 1 NIL_1    0.000
86 C_2429 145.487 72.538 -0.621 C.2 1 NIL_1    0.000
87 C_2425 133.304 56.099 0.015 C.2 1 NIL_1    0.000
88 H_2425 132.245 56.205 -0.206 H 1 NIL_1    0.000
89 H_2429 145.208 73.504 -1.035 H 1 NIL_1    0.000
90 H_2424 133.668 58.163 -0.112 H 1 NIL_1    0.000
91 H_2426 133.188 54.009 0.186 H 1 NIL_1    0.000
92 H_2428 147.476 73.121 -0.270 H 1 NIL_1    0.000
93 H_2430 143.564 71.731 -0.876 H 1 NIL_1    0.000
94 H_2423 136.019 57.929 0.376 H 1 NIL_1    0.000
95 H_2432 135.535 53.769 0.675 H 1 NIL_1    0.000
96 H_2427 148.097 70.978 0.636 H 1 NIL_1    0.000
97 H_2431 144.184 69.583 0.030 H 1 NIL_1    0.000
98 H_27371 140.388 62.020 2.552 H 1 NIL_1    0.000
99 H_27372 139.548 63.393 1.828 H 1 NIL_1    0.000
100 H_27373 141.081 63.646 2.681 H 1 NIL_1    0.000
101 H_25341 141.944 63.910 -1.021 H 1 NIL_1    0.000
102 H_25342 142.095 64.765 0.524 H 1 NIL_1    0.000
103 H_25343 140.506 64.541 -0.224 H 1 NIL_1    0.000
104 H_24341 137.651 56.354 1.681 H 1 NIL_1    0.000
105 H_24342 137.609 54.664 1.186 H 1 NIL_1    0.000
106 H_24041 147.608 68.843 1.311 H 1 NIL_1    0.000
107 H_24042 145.936 68.582 1.797 H 1 NIL_1    0.000
108 H_2738 140.684 62.075 0.094 H 1 NIL_1    0.000
109 H_27441 140.267 56.052 -4.071 H 1 NIL_1    0.000
110 H_27442 138.566 55.575 -4.294 H 1 NIL_1    0.000
111 H_27443 139.748 54.399 -3.659 H 1 NIL_1    0.000
112 H_27481 147.998 65.544 -3.181 H 1 NIL_1    0.000
113 H_27482 147.221 66.998 -3.851 H 1 NIL_1    0.000
114 H_27483 146.279 65.505 -3.663 H 1 NIL_1    0.000
115 H_27421 143.272 62.679 1.624 H 1 NIL_1    0.000
116 H_27422 142.439 61.156 1.596 H 1 NIL_1    0.000
117 H_23671 143.055 59.631 0.391 H 1 NIL_1    0.000
118 H_23672 144.063 59.808 -1.035 H 1 NIL_1    0.000
119 H_23511 140.419 58.141 -3.177 H 1 NIL_1    0.000
120 H_23512 139.501 58.811 -1.795 H 1 NIL_1    0.000
121 H_23561 144.863 64.540 -2.246 H 1 NIL_1    0.000
122 H_23562 144.023 65.453 -0.979 H 1 NIL_1    0.000
123 H_23531 141.859 55.776 -2.360 H 1 NIL_1    0.000
124 H_23532 141.516 55.348 -0.675 H 1 NIL_1    0.000
125 H_27391 142.751 56.698 2.336 H 1 NIL_1    0.000
126 H_27392 143.914 57.933 1.829 H 1 NIL_1    0.000
127 H_27393 144.056 57.195 3.424 H 1 NIL_1    0.000
128 H_27161 143.511 54.242 2.578 H 1 NIL_1    0.000
129 H_27162 144.789 54.777 3.681 H 1 NIL_1    0.000
130 H_27163 145.200 53.815 2.257 H 1 NIL_1    0.000
131 H_23541 147.656 64.041 -1.489 H 1 NIL_1    0.000
132 H_23542 147.968 64.750 0.125 H 1 NIL_1    0.000
133 H_2375 144.467 63.836 0.648 H 1 NIL_1    0.000
134 H_2370 142.338 57.460 0.106 H 1 NIL_1    0.000
135 H_2740 145.752 56.201 1.899 H 1 NIL_1    0.000
136 H_27351 149.984 59.993 -3.414 H 1 NIL_1    0.000
137 H_27352 150.313 61.701 -3.065 H 1 NIL_1    0.000
138 H_27353 148.983 61.265 -4.145 H 1 NIL_1    0.000
139 H_27151 147.708 58.956 -2.487 H 1 NIL_1    0.000
140 H_27152 146.857 60.297 -3.263 H 1 NIL_1    0.000
141 H_27153 146.634 60.010 -1.538 H 1 NIL_1    0.000
142 H_2420 157.257 52.574 -0.292 H 1 NIL_1    0.000
143 H_27431 144.966 54.707 0.029 H 1 NIL_1    0.000
144 H_27432 143.344 55.298 0.258 H 1 NIL_1    0.000
145 H_2736 148.172 61.914 -1.889 H 1 NIL_1    0.000
146 H_2419 156.654 53.996 1.575 H 1 NIL_1    0.000
147 H_2421 155.521 51.546 -1.636 H 1 NIL_1    0.000
148 H_23781 148.879 62.682 0.049 H 1 NIL_1    0.000
149 H_23782 148.684 62.364 1.774 H 1 NIL_1    0.000
150 H_27411 149.588 59.382 -0.949 H 1 NIL_1    0.000
151 H_27412 150.300 60.964 -0.761 H 1 NIL_1    0.000
152 H_2418 154.334 54.399 2.090 H 1 NIL_1    0.000
153 H_2422 153.201 51.943 -1.120 H 1 NIL_1    0.000
154 H_23731 146.356 57.137 -1.922 H 1 NIL_1    0.000
155 H_23732 146.604 55.797 -0.796 H 1 NIL_1    0.000
156 H_24021 151.535 52.734 0.358 H 1 NIL_1    0.000
157 H_24022 152.020 53.469 1.885 H 1 NIL_1    0.000
158 H_2380 148.655 57.730 2.228 H 1 NIL_1    0.000
159 H_23631 149.094 57.148 -1.588 H 1 NIL_1    0.000
160 H_23632 148.651 55.733 -0.612 H 1 NIL_1    0.000
161 H_23651 150.979 58.775 0.668 H 1 NIL_1    0.000
162 H_23652 150.948 57.665 2.030 H 1 NIL_1    0.000
163 H_27461 151.713 58.689 -1.431 H 1 NIL_1    0.000
164 H_27462 150.981 57.594 -2.635 H 1 NIL_1    0.000
165 H_27463 152.730 57.560 -2.341 H 1 NIL_1    0.000
@<TRIPOS>BOND
1 1 3 1 
2 2 1 1 
3 2 5 1 
4 4 1 1 
5 4 163 1 
6 4 164 1 
7 4 165 1 
8 6 11 1 
9 6 2 1 
10 6 161 1 
11 6 162 1 
12 7 2 1 
13 7 12 1 
14 7 159 1 
15 7 160 1 
16 8 3 2 
17 9 13 1 
18 9 3 1 
19 9 5 1 
20 10 5 2 
21 11 12 1 
22 11 158 1 
23 13 16 1 
24 13 156 1 
25 13 157 1 
26 14 17 1 
27 14 11 1 
28 15 12 1 
29 16 21 1 
30 17 23 1 
31 17 24 1 
32 18 14 2 
33 19 15 1 
34 19 25 1 
35 19 154 1 
36 19 155 1 
37 20 15 2 
38 21 153 1 
39 22 27 1 
40 22 16 2 
41 22 152 1 
42 23 28 1 
43 23 150 1 
44 23 151 1 
45 24 29 1 
46 24 148 1 
47 24 149 1 
48 25 30 1 
49 26 21 2 
50 26 147 1 
51 27 32 2 
52 27 146 1 
53 30 37 1 
54 30 143 1 
55 30 144 1 
56 31 25 1 
57 32 26 1 
58 32 142 1 
59 33 28 1 
60 34 28 1 
61 34 138 1 
62 35 40 1 
63 35 29 1 
64 36 29 2 
65 38 31 2 
66 39 31 1 
67 41 48 1 
68 41 35 1 
69 42 37 1 
70 43 37 1 
71 44 39 1 
72 45 39 1 
73 45 51 1 
74 46 40 1 
75 46 48 1 
76 47 52 1 
77 47 40 1 
78 48 54 1 
79 49 44 1 
80 50 51 1 
81 50 44 1 
82 51 58 1 
83 52 60 1 
84 53 47 2 
85 55 64 1 
86 55 48 1 
87 56 49 1 
88 56 52 1 
89 57 49 2 
90 58 65 1 
91 59 68 1 
92 59 51 1 
93 60 69 1 
94 61 54 1 
95 61 64 1 
96 62 54 1 
97 62 112 1 
98 62 113 1 
99 62 114 1 
100 63 55 2 
101 64 71 1 
102 66 58 1 
103 66 109 1 
104 66 110 1 
105 66 111 1 
106 67 59 2 
107 68 73 1 
108 68 65 1 
109 70 61 2 
110 71 76 1 
111 72 65 2 
112 74 69 1 
113 75 69 1 
114 76 78 1 
115 77 73 1 
116 79 83 1 
117 79 76 2 
118 80 77 2 
119 81 85 2 
120 81 77 1 
121 82 78 2 
122 83 86 2 
123 84 80 1 
124 85 87 1 
125 86 82 1 
126 87 84 2 
127 88 87 1 
128 89 86 1 
129 90 85 1 
130 91 84 1 
131 92 83 1 
132 93 82 1 
133 94 81 1 
134 95 80 1 
135 96 79 1 
136 97 78 1 
137 98 75 1 
138 99 75 1 
139 100 75 1 
140 101 74 1 
141 102 74 1 
142 103 74 1 
143 104 73 1 
144 105 73 1 
145 106 71 1 
146 107 71 1 
147 108 69 1 
148 115 60 1 
149 116 60 1 
150 117 56 1 
151 118 56 1 
152 119 50 1 
153 120 50 1 
154 121 46 1 
155 122 46 1 
156 123 45 1 
157 124 45 1 
158 125 43 1 
159 126 43 1 
160 127 43 1 
161 128 42 1 
162 129 42 1 
163 130 42 1 
164 131 41 1 
165 132 41 1 
166 133 40 1 
167 134 39 1 
168 135 37 1 
169 136 34 1 
170 137 34 1 
171 139 33 1 
172 140 33 1 
173 141 33 1 
174 145 28 1 
@<TRIPOS>SUBSTRUCTURE
1 NIL_1 1 RESIDUE 1 A NIL 1
