@<TRIPOS>MOLECULE
NIL
165 174 1 0 0
POLYMER
CHARGES


@<TRIPOS>ATOM
1 C_2605 131.733 85.2806 -1.30346 C.2 1 NIL_1    0.000
2 C_2604 130.525 85.815 -1.132 C.2 1 NIL_1    0.000
3 C_2606 131.852 84.022 -1.733 C.2 1 NIL_1    0.000
4 C_2603 129.436 85.089 -1.387 C.2 1 NIL_1    0.000
5 C_2580 130.767 83.284 -1.994 C.2 1 NIL_1    0.000
6 C_2602 129.558 83.831 -1.817 C.2 1 NIL_1    0.000
7 C_2579 130.909 81.853 -2.487 C.3 1 NIL_1    0.000
8 N 130.376 80.775 -1.629 N.am 1 NIL_1    0.000
9 C_2569 130.364 80.787 -0.273 C.2 1 NIL_1    0.000
10 C_2347 129.878 79.617 -2.126 C.2 1 NIL_1    0.000
11 O 130.798 81.658 0.457 O.2 1 NIL_1    0.000
12 N 129.793 79.637 0.133 N.am 1 NIL_1    0.000
13 O 129.821 79.325 -3.305 O.2 1 NIL_1    0.000
14 CQ 129.401 78.759 -0.974 C.3 1 NIL_1    0.000
15 C_3968 129.601 79.209 1.526 C.3 1 NIL_1    0.000
16 C_2311 127.889 78.484 -1.056 C.3 1 NIL_1    0.000
17 C_2309 130.057 77.364 -0.939 C.3 1 NIL_1    0.000
18 CP 127.713 77.057 -0.506 C.3 1 NIL_1    0.000
19 N 129.045 76.431 -0.420 N.am 1 NIL_1    0.000
20 C_2331 126.795 76.222 -1.395 C.2 1 NIL_1    0.000
21 C_2334 129.235 75.132 -0.060 C.2 1 NIL_1    0.000
22 N 125.536 75.938 -0.959 N.am 1 NIL_1    0.000
23 O 127.206 75.793 -2.458 O.2 1 NIL_1    0.000
24 C_2333 130.596 74.507 -0.325 C.3 1 NIL_1    0.000
25 O 128.336 74.488 0.449 O.2 1 NIL_1    0.000
26 C_2582 124.787 76.809 -0.022 C.3 1 NIL_1    0.000
27 C_2322 124.732 74.831 -1.542 C.3 1 NIL_1    0.000
28 N 130.545 73.029 -0.494 N.am 1 NIL_1    0.000
29 C_2587 124.861 76.411 1.476 C.3 1 NIL_1    0.000
30 C_2323 125.351 73.449 -1.310 C.2 1 NIL_1    0.000
31 C_2583 130.494 72.676 -1.929 C.3 1 NIL_1    0.000
32 C_2336 130.467 72.195 0.599 C.2 1 NIL_1    0.000
33 C_2588 123.955 75.205 1.786 C.3 1 NIL_1    0.000
34 C_2733 124.447 77.617 2.347 C.3 1 NIL_1    0.000
35 N 124.565 72.428 -0.867 N.am 1 NIL_1    0.000
36 O 126.534 73.246 -1.506 O.2 1 NIL_1    0.000
37 C_2590 131.870 72.314 -2.540 C.3 1 NIL_1    0.000
38 O 130.393 72.704 1.702 O.2 1 NIL_1    0.000
39 BP 130.486 70.648 0.575 C.3 1 NIL_1    0.000
40 AP 125.130 71.139 -0.431 C.3 1 NIL_1    0.000
41 C_2306 123.106 72.437 -0.654 C.3 1 NIL_1    0.000
42 C_2591 132.765 73.553 -2.738 C.3 1 NIL_1    0.000
43 C_2731 131.674 71.594 -3.892 C.3 1 NIL_1    0.000
44 N 130.384 69.869 -0.681 N.am 1 NIL_1    0.000
45 C_2320 131.752 70.161 1.313 C.3 1 NIL_1    0.000
46 C_2308 124.057 70.442 0.425 C.3 1 NIL_1    0.000
47 C_2326 125.543 70.233 -1.593 C.2 1 NIL_1    0.000
48 AQ 122.723 71.142 0.092 C.3 1 NIL_1    0.000
49 C_2337 129.255 69.603 -1.395 C.2 1 NIL_1    0.000
50 C_2318 131.625 69.109 -0.908 C.3 1 NIL_1    0.000
51 BQ 132.446 69.139 0.392 C.3 1 NIL_1    0.000
52 N 126.689 69.510 -1.467 N.am 1 NIL_1    0.000
53 O 124.827 70.079 -2.563 O.2 1 NIL_1    0.000
54 N 121.824 71.321 1.237 N.am 1 NIL_1    0.000
55 C_2343 121.830 70.257 -0.751 C.2 1 NIL_1    0.000
56 C_2328 127.912 70.028 -0.797 C.3 1 NIL_1    0.000
57 O 129.344 69.056 -2.477 O.2 1 NIL_1    0.000
58 N 132.655 67.825 1.006 N.am 1 NIL_1    0.000
59 C_2339 133.892 69.508 0.145 C.2 1 NIL_1    0.000
60 C_2581 126.672 68.054 -1.774 C.3 1 NIL_1    0.000
61 C_2345 120.656 70.662 1.118 C.2 1 NIL_1    0.000
62 C_3974 122.220 72.183 2.361 C.3 1 NIL_1    0.000
63 O 122.092 69.805 -1.848 O.2 1 NIL_1    0.000
64 N 120.672 70.037 -0.085 N.am 1 NIL_1    0.000
65 C_2341 133.956 67.499 1.144 C.2 1 NIL_1    0.000
66 C_3972 131.496 67.015 1.415 C.3 1 NIL_1    0.000
67 O 134.287 70.542 -0.361 O.2 1 NIL_1    0.000
68 N 134.682 68.509 0.605 N.am 1 NIL_1    0.000
69 C_2584 127.057 67.120 -0.594 C.3 1 NIL_1    0.000
70 O 119.770 70.649 1.950 O.2 1 NIL_1    0.000
71 C_2609 119.599 69.197 -0.654 C.3 1 NIL_1    0.000
72 O 134.379 66.484 1.663 O.2 1 NIL_1    0.000
73 C_2577 136.157 68.593 0.582 C.3 1 NIL_1    0.000
74 C_2585 127.150 65.667 -1.099 C.3 1 NIL_1    0.000
75 C_2729 126.042 67.218 0.566 C.3 1 NIL_1    0.000
76 C_2608 118.237 69.166 0.012 C.2 1 NIL_1    0.000
77 C_2578 136.961 67.309 0.512 C.2 1 NIL_1    0.000
78 C_2607 117.315 70.088 -0.285 C.2 1 NIL_1    0.000
79 C_2598 117.936 68.210 0.897 C.2 1 NIL_1    0.000
80 C_2597 137.791 66.977 1.508 C.2 1 NIL_1    0.000
81 C_2593 136.867 66.499 -0.548 C.2 1 NIL_1    0.000
82 C_2601 116.111 70.054 0.290 C.2 1 NIL_1    0.000
83 C_2599 116.732 68.174 1.472 C.2 1 NIL_1    0.000
84 C_2596 138.513 65.857 1.447 C.2 1 NIL_1    0.000
85 C_2594 137.585 65.376 -0.611 C.2 1 NIL_1    0.000
86 C_2600 115.818 69.095 1.167 C.2 1 NIL_1    0.000
87 C_2595 138.410 65.055 0.387 C.2 1 NIL_1    0.000
88 H_2595 138.999 64.143 0.336 H 1 NIL_1    0.000
89 H_2600 114.835 69.062 1.633 H 1 NIL_1    0.000
90 H_2594 137.502 64.724 -1.478 H 1 NIL_1    0.000
91 H_2596 139.187 65.600 2.261 H 1 NIL_1    0.000
92 H_2599 116.496 67.393 2.190 H 1 NIL_1    0.000
93 H_2601 115.368 70.806 0.041 H 1 NIL_1    0.000
94 H_2593 136.200 66.753 -1.369 H 1 NIL_1    0.000
95 H_2597 137.886 67.624 2.377 H 1 NIL_1    0.000
96 H_2598 118.673 67.452 1.153 H 1 NIL_1    0.000
97 H_2607 117.541 70.873 -1.002 H 1 NIL_1    0.000
98 H_27291 126.038 68.222 0.994 H 1 NIL_1    0.000
99 H_27292 126.304 66.518 1.364 H 1 NIL_1    0.000
100 H_27293 125.032 66.982 0.222 H 1 NIL_1    0.000
101 H_25851 126.193 65.335 -1.508 H 1 NIL_1    0.000
102 H_25852 127.431 64.994 -0.285 H 1 NIL_1    0.000
103 H_25853 127.908 65.587 -1.882 H 1 NIL_1    0.000
104 H_25771 136.457 69.156 1.470 H 1 NIL_1    0.000
105 H_25772 136.443 69.200 -0.280 H 1 NIL_1    0.000
106 H_26091 119.985 68.175 -0.703 H 1 NIL_1    0.000
107 H_26092 119.450 69.524 -1.687 H 1 NIL_1    0.000
108 H_2584 128.045 67.390 -0.212 H 1 NIL_1    0.000
109 H_39721 130.582 67.389 0.946 H 1 NIL_1    0.000
110 H_39722 131.384 67.058 2.502 H 1 NIL_1    0.000
111 H_39723 131.650 65.976 1.111 H 1 NIL_1    0.000
112 H_39741 121.659 73.119 2.310 H 1 NIL_1    0.000
113 H_39742 123.288 72.405 2.320 H 1 NIL_1    0.000
114 H_39743 121.993 71.679 3.304 H 1 NIL_1    0.000
115 H_25811 127.323 67.855 -2.625 H 1 NIL_1    0.000
116 H_25812 125.664 67.773 -2.092 H 1 NIL_1    0.000
117 H_23281 127.888 69.715 0.250 H 1 NIL_1    0.000
118 H_23282 127.907 71.120 -0.828 H 1 NIL_1    0.000
119 H_23181 132.185 69.544 -1.736 H 1 NIL_1    0.000
120 H_23182 131.379 68.078 -1.176 H 1 NIL_1    0.000
121 H_23081 124.012 69.367 0.233 H 1 NIL_1    0.000
122 H_23082 124.313 70.578 1.477 H 1 NIL_1    0.000
123 H_23201 132.426 70.990 1.547 H 1 NIL_1    0.000
124 H_23202 131.468 69.703 2.263 H 1 NIL_1    0.000
125 H_27311 131.096 70.676 -3.766 H 1 NIL_1    0.000
126 H_27312 132.639 71.323 -4.326 H 1 NIL_1    0.000
127 H_27313 131.146 72.236 -4.600 H 1 NIL_1    0.000
128 H_25911 132.283 74.279 -3.396 H 1 NIL_1    0.000
129 H_25912 133.718 73.259 -3.186 H 1 NIL_1    0.000
130 H_25913 132.985 74.035 -1.784 H 1 NIL_1    0.000
131 H_23061 122.600 72.483 -1.622 H 1 NIL_1    0.000
132 H_23062 122.812 73.306 -0.062 H 1 NIL_1    0.000
133 HP 125.997 71.337 0.203 H 1 NIL_1    0.000
134 HP 129.638 70.357 1.199 H 1 NIL_1    0.000
135 H_2590 132.388 71.645 -1.858 H 1 NIL_1    0.000
136 H_27331 123.430 77.937 2.108 H 1 NIL_1    0.000
137 H_27332 125.124 78.460 2.181 H 1 NIL_1    0.000
138 H_27333 124.488 77.359 3.407 H 1 NIL_1    0.000
139 H_25881 122.928 75.388 1.457 H 1 NIL_1    0.000
140 H_25882 123.943 74.998 2.859 H 1 NIL_1    0.000
141 H_25883 124.330 74.315 1.284 H 1 NIL_1    0.000
142 H_25831 130.084 73.519 -2.495 H 1 NIL_1    0.000
143 H_25832 129.786 71.871 -2.081 H 1 NIL_1    0.000
144 H_2587 125.885 76.142 1.742 H 1 NIL_1    0.000
145 H_23221 124.665 74.973 -2.624 H 1 NIL_1    0.000
146 H_23222 123.721 74.855 -1.138 H 1 NIL_1    0.000
147 H_25821 123.738 76.855 -0.331 H 1 NIL_1    0.000
148 H_25822 125.178 77.824 -0.131 H 1 NIL_1    0.000
149 H_23331 131.004 74.971 -1.227 H 1 NIL_1    0.000
150 H_23332 131.252 74.765 0.510 H 1 NIL_1    0.000
151 HP 127.316 77.111 0.507 H 1 NIL_1    0.000
152 H_23091 130.327 77.049 -1.950 H 1 NIL_1    0.000
153 H_23092 130.948 77.363 -0.304 H 1 NIL_1    0.000
154 H_23111 127.555 78.529 -2.094 H 1 NIL_1    0.000
155 H_23112 127.304 79.208 -0.484 H 1 NIL_1    0.000
156 H_39681 129.059 79.984 2.075 H 1 NIL_1    0.000
157 H_39682 130.579 79.053 1.989 H 1 NIL_1    0.000
158 H_39683 129.032 78.281 1.574 H 1 NIL_1    0.000
159 H_25791 130.402 81.793 -3.455 H 1 NIL_1    0.000
160 H_25792 131.964 81.634 -2.667 H 1 NIL_1    0.000
161 H_2602 128.662 83.249 -2.021 H 1 NIL_1    0.000
162 H_2603 128.449 85.523 -1.244 H 1 NIL_1    0.000
163 H_2606 132.845 83.600 -1.870 H 1 NIL_1    0.000
164 H_2604 130.427 86.841 -0.784 H 1 NIL_1    0.000
165 H_2605 132.623 85.871 -1.098 H 1 NIL_1    0.000
@<TRIPOS>BOND
1 2 4 2 
2 2 1 1 
3 3 1 2 
4 4 6 1 
5 5 7 1 
6 5 3 1 
7 6 5 2 
8 7 8 1 
9 9 8 1 
10 10 8 1 
11 11 9 2 
12 12 9 1 
13 13 10 2 
14 14 12 1 
15 14 10 1 
16 15 12 1 
17 16 18 1 
18 16 14 1 
19 17 14 1 
20 17 19 1 
21 19 18 1 
22 19 21 1 
23 20 22 1 
24 20 18 1 
25 22 26 1 
26 23 20 2 
27 24 21 1 
28 24 28 1 
29 25 21 2 
30 26 29 1 
31 27 30 1 
32 27 22 1 
33 28 31 1 
34 30 35 1 
35 31 37 1 
36 32 28 1 
37 32 39 1 
38 33 29 1 
39 34 29 1 
40 35 40 1 
41 36 30 2 
42 38 32 2 
43 39 44 1 
44 40 47 1 
45 41 48 1 
46 41 35 1 
47 42 37 1 
48 43 37 1 
49 45 39 1 
50 45 51 1 
51 46 40 1 
52 46 48 1 
53 47 52 1 
54 48 54 1 
55 48 55 1 
56 49 44 1 
57 50 51 1 
58 50 44 1 
59 51 58 1 
60 51 59 1 
61 52 60 1 
62 53 47 2 
63 54 61 1 
64 55 64 1 
65 56 49 1 
66 56 52 1 
67 57 49 2 
68 58 65 1 
69 59 68 1 
70 60 69 1 
71 61 64 1 
72 62 54 1 
73 63 55 2 
74 64 71 1 
75 65 68 1 
76 66 58 1 
77 67 59 2 
78 68 73 1 
79 70 61 2 
80 72 65 2 
81 74 69 1 
82 75 69 1 
83 76 71 1 
84 77 80 1 
85 77 81 2 
86 77 73 1 
87 78 76 2 
88 79 83 2 
89 79 76 1 
90 82 78 1 
91 83 86 1 
92 84 80 2 
93 85 87 2 
94 85 81 1 
95 86 82 2 
96 87 84 1 
97 88 87 1 
98 89 86 1 
99 90 85 1 
100 91 84 1 
101 92 83 1 
102 93 82 1 
103 94 81 1 
104 95 80 1 
105 96 79 1 
106 97 78 1 
107 98 75 1 
108 99 75 1 
109 100 75 1 
110 101 74 1 
111 102 74 1 
112 103 74 1 
113 104 73 1 
114 105 73 1 
115 106 71 1 
116 107 71 1 
117 108 69 1 
118 109 66 1 
119 110 66 1 
120 111 66 1 
121 112 62 1 
122 113 62 1 
123 114 62 1 
124 115 60 1 
125 116 60 1 
126 117 56 1 
127 118 56 1 
128 119 50 1 
129 120 50 1 
130 121 46 1 
131 122 46 1 
132 123 45 1 
133 124 45 1 
134 125 43 1 
135 126 43 1 
136 127 43 1 
137 128 42 1 
138 129 42 1 
139 130 42 1 
140 131 41 1 
141 132 41 1 
142 133 40 1 
143 134 39 1 
144 135 37 1 
145 136 34 1 
146 137 34 1 
147 138 34 1 
148 139 33 1 
149 140 33 1 
150 141 33 1 
151 142 31 1 
152 143 31 1 
153 144 29 1 
154 145 27 1 
155 146 27 1 
156 147 26 1 
157 148 26 1 
158 149 24 1 
159 150 24 1 
160 151 18 1 
161 152 17 1 
162 153 17 1 
163 154 16 1 
164 155 16 1 
165 156 15 1 
166 157 15 1 
167 158 15 1 
168 159 7 1 
169 160 7 1 
170 161 6 1 
171 162 4 1 
172 163 3 1 
173 164 2 1 
174 165 1 1 
@<TRIPOS>SUBSTRUCTURE
1 NIL_1 1 RESIDUE 1 A NIL 1
